
-------------------------------------------------------------------------
|    ___ _   _ ___                                                      |
|   / __| | | |_  )   Release 8.5.0 "Harrier"                           |
|   \__ \ |_| |/ /                                                      |
|   |___/\___//___|   Suite (Computational Fluid Dynamics Code)         |
|                                                                       |
-------------------------------------------------------------------------
| SU2 Project Website: https://su2code.github.io                        |
|                                                                       |
| The SU2 Project is maintained by the SU2 Foundation                   |
| (http://su2foundation.org)                                            |
-------------------------------------------------------------------------
| Copyright 2012-2026, SU2 Contributors                                 |
|                                                                       |
| SU2 is free software; you can redistribute it and/or                  |
| modify it under the terms of the GNU Lesser General Public            |
| License as published by the Free Software Foundation; either          |
| version 2.1 of the License, or (at your option) any later version.    |
|                                                                       |
| SU2 is distributed in the hope that it will be useful,                |
| but WITHOUT ANY WARRANTY; without even the implied warranty of        |
| MERCHANTABILITY or FITNESS FOR A PARTICULAR PURPOSE. See the GNU      |
| Lesser General Public License for more details.                       |
|                                                                       |
| You should have received a copy of the GNU Lesser General Public      |
| License along with SU2. If not, see <http://www.gnu.org/licenses/>.   |
-------------------------------------------------------------------------

Parsing config file for zone 0

----------------- Physical Case Definition ( Zone 0 ) -------------------
Compressible Euler equations.
Mach number: 0.85.
Angle of attack (AoA): 3 deg, and angle of sideslip (AoS): 0 deg.
No restart solution, use the values at infinity (freestream).
Dimensional simulation.
The reference area is 4.9725 m^2.
The semi-span will be computed using the max y(3D) value.
The reference length is 1.792 m.
Reference origin for moment evaluation is (0.896, 0, 0).
Surface(s) where the force coefficients are evaluated: wing.

Surface(s) plotted in the output file: wing.
Input mesh file name: mesh.su2

--------------- Space Numerical Integration ( Zone 0 ) ------------------
Jameson-Schmidt-Turkel scheme (2nd order in space) for the flow inviscid terms.
JST viscous coefficients (2nd & 4th): 0.7, 0.04.
The method includes a grid stretching correction (p = 0.3).
Gradient for upwind reconstruction: inverse-distance weighted Least-Squares.
Gradient for viscous and source terms: inverse-distance weighted Least-Squares.

--------------- Time Numerical Integration  ( Zone 0 ) ------------------
Local time stepping (steady state simulation).
Euler implicit method for the flow equations.
FGMRES is used for solving the linear system.
Using a ILU(0) preconditioning.
Convergence criteria of the linear solver: 1e-06.
Max number of linear iterations: 5.
No CFL adaptation.
Courant-Friedrichs-Lewy number:        1

------------------ Convergence Criteria  ( Zone 0 ) ---------------------
Maximum number of solver subiterations: 2500.
Begin convergence monitoring at iteration 10.
Residual minimum value: 1e-12.
Cauchy series min. value: 1e-10.
Number of Cauchy elements: 100.
Begin windowed time average at iteration 0.

-------------------- Output Information ( Zone 0 ) ----------------------
File writing frequency: 
+------------------------------------+
|                     File| Frequency|
+------------------------------------+
|                  RESTART|       250|
|              SURFACE_CSV|       250|
+------------------------------------+
Writing the convergence history file every 1 inner iterations.
Writing the screen convergence history every 1 inner iterations.
The tabular file format is CSV (.csv).
Convergence history file name: history.
Forces breakdown file name: forces_breakdown.dat.
Surface file name: surface_flow.
Volume file name: flow.
Restart file name: restart_flow.dat.

------------- Config File Boundary Information ( Zone 0 ) ---------------
+-----------------------------------------------------------------------+
|                        Marker Type|                        Marker Name|
+-----------------------------------------------------------------------+
|                         Euler wall|                               wing|
+-----------------------------------------------------------------------+
|                          Far-field|                           farfield|
+-----------------------------------------------------------------------+

-------------------- Output Preprocessing ( Zone 0 ) --------------------

WARNING: SURFACE_PRESSURE_DROP can only be computed for at least 2 surfaces (outlet, inlet, ...)

Screen output fields: INNER_ITER, RMS_DENSITY, LIFT, DRAG
History output group(s): ITER, RMS_RES
Convergence field(s): RMS_DENSITY
Warning: No (valid) fields chosen for time convergence monitoring. Time convergence monitoring inactive.
Volume output fields: COORDINATES, SOLUTION, PRIMITIVE

------------------- Geometry Preprocessing ( Zone 0 ) -------------------
Three dimensional problem.
138980 grid points before partitioning.
809131 volume elements before partitioning.
2 surface markers.
9152 boundary elements in index 0 (Marker = wing).
29494 boundary elements in index 1 (Marker = farfield).
Executing the partitioning functions.
Building the graph adjacency structure.
Calling ParMETIS... graph partitioning complete (34068 edge cuts).
Distributing ParMETIS coloring.
Rebalancing vertices.
Rebalancing volume element connectivity.
Rebalancing markers and surface elements.
157875 vertices including ghost points. 
860584 interior elements including halo cells. 
860584 tetrahedra.
Establishing MPI communication patterns.
Setting point connectivity.
Renumbering points (Reverse Cuthill McKee Ordering).
Recomputing point connectivity.
Setting element connectivity.
Checking the numerical grid orientation.
All volume elements are correctly oriented.
There has been a re-orientation of 30379 TRIANGLE surface elements.
Identifying edges and vertices.
Setting the control volume structure.
Volume of the computational grid: 26092.4.
Searching for the closest normal neighbors to the surfaces.
Storing a mapping from global to local point index.
Compute the surface curvature.
Max K: 1383.91. Mean K: 4.57975. Standard deviation K: 38.967.
Computing mesh quality statistics for the dual control volumes.
+--------------------------------------------------------------+
|           Mesh Quality Metric|        Minimum|        Maximum|
+--------------------------------------------------------------+
|    Orthogonality Angle (deg.)|        52.4899|        84.5148|
|     CV Face Area Aspect Ratio|        1.21138|        27.4207|
|           CV Sub-Volume Ratio|              1|        356.983|
+--------------------------------------------------------------+
Finding max control volume width.
Communicating number of neighbors.
Semi-span length = 3 m.
Wetted area = 10.2511 m^2.
Area projection in the x-plane = 0.345333 m^2, y-plane = 0.323004 m^2, z-plane = 4.93028 m^2.
Max. coordinate in the x-direction = 2.688 m, y-direction = 3 m, z-direction = 0.0887669 m.
Min. coordinate in the x-direction = 0 m, y-direction = 0 m, z-direction = -0.0887669 m.
Computing wall distances.

-------------------- Solver Preprocessing ( Zone 0 ) --------------------
Inviscid flow: Computing density based on free-stream
temperature and pressure using the ideal gas law.
Force coefficients computed using free-stream values.

-- Models:
+------------------------------------------------------------------------------+
|          Viscosity Model|        Conductivity Model|              Fluid Model|
+------------------------------------------------------------------------------+
|                        -|                         -|             STANDARD_AIR|
+------------------------------------------------------------------------------+
-- Fluid properties:
+------------------------------------------------------------------------------+
|                  Name|    Dim. value|    Ref. value|      Unit|Non-dim. value|
+------------------------------------------------------------------------------+
|          Gas Constant|       287.058|             1|  N.m/kg.K|       287.058|
|      Spec. Heat Ratio|             -|             -|         -|           1.4|
+------------------------------------------------------------------------------+
-- Initial and free-stream conditions:
+------------------------------------------------------------------------------+
|                  Name|    Dim. value|    Ref. value|      Unit|Non-dim. value|
+------------------------------------------------------------------------------+
|       Static Pressure|       26436.3|             1|        Pa|       26436.3|
|               Density|        0.4127|             1|    kg/m^3|        0.4127|
|           Temperature|        223.15|             1|         K|        223.15|
|          Total Energy|        192539|             1|   m^2/s^2|        192539|
|            Velocity-X|       254.197|             1|       m/s|       254.197|
|            Velocity-Y|             0|             1|       m/s|             0|
|            Velocity-Z|       13.3219|             1|       m/s|       13.3219|
|    Velocity Magnitude|       254.546|             1|       m/s|       254.546|
+------------------------------------------------------------------------------+
|           Mach Number|             -|             -|         -|          0.85|
+------------------------------------------------------------------------------+
Initialize Jacobian structure (Euler). MG level: 0.

------------------- Numerics Preprocessing ( Zone 0 ) -------------------

----------------- Integration Preprocessing ( Zone 0 ) ------------------

------------------- Iteration Preprocessing ( Zone 0 ) ------------------
Euler/Navier-Stokes/RANS fluid iteration.

------------------------------ Begin Solver -----------------------------

Simulation Run using the Single-zone Driver
+---------------------------------------------------+
|  Inner_Iter|    rms[Rho]|          CL|          CD|
+---------------------------------------------------+
|           0|   -2.285078|    0.043413|    0.015178|
|           1|   -2.324353|    0.065503|    0.018894|
|           2|   -2.333793|    0.086759|    0.022498|
|           3|   -2.344945|    0.107095|    0.025964|
|           4|   -2.358128|    0.126439|    0.029266|
|           5|   -2.373256|    0.144726|    0.032382|
|           6|   -2.390180|    0.161903|    0.035292|
|           7|   -2.408677|    0.177929|    0.037979|
|           8|   -2.428436|    0.192773|    0.040429|
|           9|   -2.449046|    0.206413|    0.042629|
|          10|   -2.470006|    0.218839|    0.044571|
|          11|   -2.490702|    0.230049|    0.046251|
|          12|   -2.510441|    0.240051|    0.047664|
|          13|   -2.528489|    0.248861|    0.048810|
|          14|   -2.544126|    0.256502|    0.049695|
|          15|   -2.556773|    0.263004|    0.050322|
|          16|   -2.566059|    0.268405|    0.050700|
|          17|   -2.571901|    0.272746|    0.050840|
|          18|   -2.574505|    0.276075|    0.050755|
|          19|   -2.574319|    0.278444|    0.050458|
|          20|   -2.571946|    0.279908|    0.049965|
|          21|   -2.568047|    0.280526|    0.049294|
|          22|   -2.563255|    0.280359|    0.048461|
|          23|   -2.558132|    0.279470|    0.047485|
|          24|   -2.553135|    0.277923|    0.046384|
|          25|   -2.548616|    0.275782|    0.045177|
|          26|   -2.544823|    0.273113|    0.043882|
|          27|   -2.541918|    0.269981|    0.042517|
|          28|   -2.539989|    0.266448|    0.041099|
|          29|   -2.539061|    0.262577|    0.039643|
|          30|   -2.539111|    0.258428|    0.038166|
|          31|   -2.540080|    0.254059|    0.036682|
|          32|   -2.541872|    0.249524|    0.035203|
|          33|   -2.544369|    0.244876|    0.033742|
|          34|   -2.547437|    0.240164|    0.032310|
|          35|   -2.550926|    0.235433|    0.030915|
|          36|   -2.554683|    0.230727|    0.029566|
|          37|   -2.558553|    0.226082|    0.028270|
|          38|   -2.562392|    0.221535|    0.027032|
|          39|   -2.566066|    0.217116|    0.025857|
|          40|   -2.569462|    0.212854|    0.024747|
|          41|   -2.572494|    0.208771|    0.023706|
|          42|   -2.575100|    0.204889|    0.022735|
|          43|   -2.577252|    0.201224|    0.021835|
|          44|   -2.578947|    0.197790|    0.021004|
|          45|   -2.580210|    0.194596|    0.020242|
|          46|   -2.581087|    0.191649|    0.019548|
|          47|   -2.581641|    0.188955|    0.018919|
|          48|   -2.581945|    0.186513|    0.018353|
|          49|   -2.582075|    0.184323|    0.017847|
|          50|   -2.582107|    0.182381|    0.017398|
|          51|   -2.582115|    0.180682|    0.017002|
|          52|   -2.582162|    0.179216|    0.016656|
|          53|   -2.582302|    0.177975|    0.016355|
|          54|   -2.582579|    0.176948|    0.016097|
|          55|   -2.583022|    0.176121|    0.015877|
|          56|   -2.583650|    0.175482|    0.015692|
|          57|   -2.584470|    0.175017|    0.015538|
|          58|   -2.585479|    0.174709|    0.015412|
|          59|   -2.586668|    0.174543|    0.015310|
|          60|   -2.588017|    0.174504|    0.015228|
|          61|   -2.589502|    0.174575|    0.015164|
|          62|   -2.591096|    0.174741|    0.015115|
|          63|   -2.592769|    0.174986|    0.015079|
|          64|   -2.594489|    0.175295|    0.015051|
|          65|   -2.596227|    0.175653|    0.015031|
|          66|   -2.597956|    0.176047|    0.015016|
|          67|   -2.599650|    0.176463|    0.015005|
|          68|   -2.601290|    0.176889|    0.014994|
|          69|   -2.602860|    0.177313|    0.014984|
|          70|   -2.604349|    0.177725|    0.014973|
|          71|   -2.605752|    0.178116|    0.014959|
|          72|   -2.607066|    0.178476|    0.014942|
|          73|   -2.608295|    0.178799|    0.014921|
|          74|   -2.609443|    0.179079|    0.014895|
|          75|   -2.610519|    0.179310|    0.014864|
|          76|   -2.611532|    0.179487|    0.014827|
|          77|   -2.612491|    0.179608|    0.014785|
|          78|   -2.613408|    0.179670|    0.014736|
|          79|   -2.614291|    0.179672|    0.014681|
|          80|   -2.615149|    0.179613|    0.014621|
|          81|   -2.615988|    0.179494|    0.014555|
|          82|   -2.616810|    0.179315|    0.014483|
|          83|   -2.617619|    0.179078|    0.014406|
|          84|   -2.618414|    0.178785|    0.014324|
|          85|   -2.619192|    0.178440|    0.014238|
|          86|   -2.619947|    0.178044|    0.014147|
|          87|   -2.620671|    0.177603|    0.014053|
|          88|   -2.621358|    0.177119|    0.013956|
|          89|   -2.621995|    0.176597|    0.013856|
|          90|   -2.622572|    0.176040|    0.013754|
|          91|   -2.623078|    0.175455|    0.013650|
|          92|   -2.623501|    0.174844|    0.013545|
|          93|   -2.623831|    0.174213|    0.013439|
|          94|   -2.624055|    0.173566|    0.013333|
|          95|   -2.624166|    0.172908|    0.013226|
|          96|   -2.624156|    0.172242|    0.013120|
|          97|   -2.624017|    0.171572|    0.013014|
|          98|   -2.623747|    0.170903|    0.012910|
|          99|   -2.623342|    0.170238|    0.012806|
|         100|   -2.622801|    0.169580|    0.012705|
|         101|   -2.622128|    0.168933|    0.012605|
|         102|   -2.621324|    0.168298|    0.012507|
|         103|   -2.620396|    0.167680|    0.012411|
|         104|   -2.619350|    0.167079|    0.012317|
|         105|   -2.618194|    0.166498|    0.012226|
|         106|   -2.616938|    0.165938|    0.012136|
|         107|   -2.615592|    0.165400|    0.012050|
|         108|   -2.614167|    0.164886|    0.011966|
|         109|   -2.612674|    0.164396|    0.011884|
|         110|   -2.611123|    0.163930|    0.011805|
|         111|   -2.609525|    0.163489|    0.011728|
|         112|   -2.607888|    0.163072|    0.011653|
|         113|   -2.606219|    0.162680|    0.011580|
|         114|   -2.604526|    0.162312|    0.011510|
|         115|   -2.602811|    0.161966|    0.011442|
|         116|   -2.601077|    0.161643|    0.011376|
|         117|   -2.599320|    0.161341|    0.011312|
|         118|   -2.597538|    0.161060|    0.011249|
|         119|   -2.595723|    0.160798|    0.011188|
|         120|   -2.593864|    0.160554|    0.011129|
|         121|   -2.591948|    0.160327|    0.011071|
|         122|   -2.589957|    0.160115|    0.011015|
|         123|   -2.587873|    0.159918|    0.010960|
|         124|   -2.585674|    0.159733|    0.010906|
|         125|   -2.583337|    0.159560|    0.010853|
|         126|   -2.580837|    0.159397|    0.010801|
|         127|   -2.578149|    0.159244|    0.010750|
|         128|   -2.575249|    0.159099|    0.010700|
|         129|   -2.572116|    0.158960|    0.010651|
|         130|   -2.568730|    0.158828|    0.010603|
|         131|   -2.565075|    0.158701|    0.010555|
|         132|   -2.561140|    0.158578|    0.010508|
|         133|   -2.556919|    0.158458|    0.010461|
|         134|   -2.552412|    0.158341|    0.010415|
|         135|   -2.547624|    0.158226|    0.010370|
|         136|   -2.542568|    0.158113|    0.010325|
|         137|   -2.537262|    0.158002|    0.010281|
|         138|   -2.531729|    0.157891|    0.010237|
|         139|   -2.525996|    0.157780|    0.010194|
|         140|   -2.520096|    0.157670|    0.010151|
|         141|   -2.514061|    0.157561|    0.010109|
|         142|   -2.507929|    0.157452|    0.010067|
|         143|   -2.501735|    0.157343|    0.010025|
|         144|   -2.495515|    0.157234|    0.009984|
|         145|   -2.489304|    0.157126|    0.009944|
|         146|   -2.483133|    0.157019|    0.009904|
|         147|   -2.477032|    0.156912|    0.009864|
|         148|   -2.471028|    0.156807|    0.009825|
|         149|   -2.465141|    0.156702|    0.009786|
|         150|   -2.459390|    0.156600|    0.009748|
|         151|   -2.453789|    0.156499|    0.009710|
|         152|   -2.448347|    0.156400|    0.009673|
|         153|   -2.443072|    0.156303|    0.009636|
|         154|   -2.437966|    0.156209|    0.009599|
|         155|   -2.433027|    0.156117|    0.009563|
|         156|   -2.428252|    0.156029|    0.009527|
|         157|   -2.423635|    0.155944|    0.009492|
|         158|   -2.419167|    0.155862|    0.009457|
|         159|   -2.414838|    0.155784|    0.009422|
|         160|   -2.410638|    0.155710|    0.009388|
|         161|   -2.406555|    0.155639|    0.009354|
|         162|   -2.402577|    0.155573|    0.009321|
|         163|   -2.398694|    0.155511|    0.009288|
|         164|   -2.394894|    0.155452|    0.009255|
|         165|   -2.391168|    0.155398|    0.009222|
|         166|   -2.387507|    0.155348|    0.009189|
|         167|   -2.383906|    0.155302|    0.009157|
|         168|   -2.380357|    0.155260|    0.009125|
|         169|   -2.376854|    0.155222|    0.009093|
|         170|   -2.373395|    0.155188|    0.009062|
|         171|   -2.369980|    0.155157|    0.009030|
|         172|   -2.366608|    0.155130|    0.008999|
|         173|   -2.363277|    0.155107|    0.008968|
|         174|   -2.359992|    0.155086|    0.008937|
|         175|   -2.356753|    0.155069|    0.008906|
|         176|   -2.353563|    0.155054|    0.008875|
|         177|   -2.350426|    0.155042|    0.008844|
|         178|   -2.347345|    0.155033|    0.008813|
|         179|   -2.344324|    0.155025|    0.008783|
|         180|   -2.341365|    0.155020|    0.008752|
|         181|   -2.338470|    0.155017|    0.008722|
|         182|   -2.335642|    0.155015|    0.008691|
|         183|   -2.332881|    0.155014|    0.008661|
|         184|   -2.330189|    0.155015|    0.008630|
|         185|   -2.327564|    0.155017|    0.008600|
|         186|   -2.325008|    0.155019|    0.008569|
|         187|   -2.322518|    0.155023|    0.008539|
|         188|   -2.320093|    0.155027|    0.008509|
|         189|   -2.317731|    0.155031|    0.008479|
|         190|   -2.315429|    0.155036|    0.008449|
|         191|   -2.313185|    0.155041|    0.008419|
|         192|   -2.310995|    0.155046|    0.008389|
|         193|   -2.308857|    0.155051|    0.008359|
|         194|   -2.306766|    0.155056|    0.008330|
|         195|   -2.304716|    0.155061|    0.008300|
|         196|   -2.302705|    0.155066|    0.008271|
|         197|   -2.300727|    0.155071|    0.008241|
|         198|   -2.298774|    0.155075|    0.008212|
|         199|   -2.296843|    0.155080|    0.008183|
|         200|   -2.294928|    0.155084|    0.008154|
|         201|   -2.293022|    0.155088|    0.008126|
|         202|   -2.291121|    0.155092|    0.008097|
|         203|   -2.289218|    0.155096|    0.008069|
|         204|   -2.287310|    0.155100|    0.008040|
|         205|   -2.285395|    0.155104|    0.008012|
|         206|   -2.283467|    0.155107|    0.007984|
|         207|   -2.281525|    0.155111|    0.007957|
|         208|   -2.279568|    0.155115|    0.007929|
|         209|   -2.277596|    0.155119|    0.007902|
|         210|   -2.275612|    0.155124|    0.007875|
|         211|   -2.273618|    0.155128|    0.007848|
|         212|   -2.271618|    0.155133|    0.007821|
|         213|   -2.269619|    0.155139|    0.007795|
|         214|   -2.267628|    0.155144|    0.007768|
|         215|   -2.265653|    0.155151|    0.007742|
|         216|   -2.263704|    0.155157|    0.007716|
|         217|   -2.261793|    0.155164|    0.007690|
|         218|   -2.259930|    0.155172|    0.007664|
|         219|   -2.258130|    0.155180|    0.007638|
|         220|   -2.256404|    0.155189|    0.007613|
|         221|   -2.254765|    0.155199|    0.007587|
|         222|   -2.253226|    0.155209|    0.007562|
|         223|   -2.251800|    0.155219|    0.007537|
|         224|   -2.250499|    0.155230|    0.007512|
|         225|   -2.249335|    0.155242|    0.007487|
|         226|   -2.248320|    0.155254|    0.007462|
|         227|   -2.247463|    0.155267|    0.007437|
|         228|   -2.246773|    0.155280|    0.007412|
|         229|   -2.246256|    0.155294|    0.007387|
|         230|   -2.245918|    0.155308|    0.007363|
|         231|   -2.245761|    0.155322|    0.007338|
|         232|   -2.245789|    0.155337|    0.007314|
|         233|   -2.245999|    0.155352|    0.007289|
|         234|   -2.246389|    0.155368|    0.007265|
|         235|   -2.246953|    0.155383|    0.007241|
|         236|   -2.247685|    0.155399|    0.007216|
|         237|   -2.248574|    0.155415|    0.007192|
|         238|   -2.249611|    0.155431|    0.007168|
|         239|   -2.250786|    0.155447|    0.007144|
|         240|   -2.252084|    0.155463|    0.007119|
|         241|   -2.253491|    0.155479|    0.007095|
|         242|   -2.254994|    0.155494|    0.007071|
|         243|   -2.256577|    0.155510|    0.007047|
|         244|   -2.258226|    0.155526|    0.007023|
|         245|   -2.259927|    0.155541|    0.006999|
|         246|   -2.261665|    0.155557|    0.006975|
|         247|   -2.263429|    0.155572|    0.006952|
|         248|   -2.265208|    0.155587|    0.006928|
|         249|   -2.266993|    0.155602|    0.006904|
|         250|   -2.268778|    0.155616|    0.006880|
+-----------------------------------------------------------------------+
|        File Writing Summary       |              Filename             |
+-----------------------------------------------------------------------+
|SU2 binary restart                 |restart_flow.dat                   |
|CSV file                           |surface_flow.csv                   |
+-----------------------------------------------------------------------+
+---------------------------------------------------+
|  Inner_Iter|    rms[Rho]|          CL|          CD|
+---------------------------------------------------+
|         251|   -2.270556|    0.155630|    0.006857|
|         252|   -2.272327|    0.155644|    0.006833|
|         253|   -2.274088|    0.155658|    0.006810|
|         254|   -2.275842|    0.155672|    0.006786|
|         255|   -2.277593|    0.155686|    0.006763|
|         256|   -2.279348|    0.155699|    0.006740|
|         257|   -2.281112|    0.155712|    0.006717|
|         258|   -2.282895|    0.155725|    0.006694|
|         259|   -2.284707|    0.155738|    0.006671|
|         260|   -2.286558|    0.155751|    0.006648|
|         261|   -2.288462|    0.155763|    0.006625|
|         262|   -2.290428|    0.155776|    0.006602|
|         263|   -2.292470|    0.155788|    0.006579|
|         264|   -2.294598|    0.155801|    0.006557|
|         265|   -2.296822|    0.155813|    0.006534|
|         266|   -2.299152|    0.155826|    0.006512|
|         267|   -2.301596|    0.155838|    0.006490|
|         268|   -2.304163|    0.155851|    0.006467|
|         269|   -2.306856|    0.155863|    0.006445|
|         270|   -2.309681|    0.155876|    0.006423|
|         271|   -2.312640|    0.155889|    0.006401|
|         272|   -2.315733|    0.155902|    0.006379|
|         273|   -2.318961|    0.155915|    0.006357|
|         274|   -2.322323|    0.155928|    0.006336|
|         275|   -2.325818|    0.155941|    0.006314|
|         276|   -2.329442|    0.155955|    0.006292|
|         277|   -2.333192|    0.155969|    0.006271|
|         278|   -2.337062|    0.155982|    0.006249|
|         279|   -2.341048|    0.155997|    0.006228|
|         280|   -2.345143|    0.156011|    0.006207|
|         281|   -2.349343|    0.156025|    0.006185|
|         282|   -2.353644|    0.156040|    0.006164|
|         283|   -2.358039|    0.156055|    0.006143|
|         284|   -2.362525|    0.156070|    0.006122|
|         285|   -2.367099|    0.156086|    0.006101|
|         286|   -2.371757|    0.156102|    0.006080|
|         287|   -2.376498|    0.156118|    0.006059|
|         288|   -2.381320|    0.156134|    0.006038|
|         289|   -2.386222|    0.156151|    0.006018|
|         290|   -2.391204|    0.156167|    0.005997|
|         291|   -2.396267|    0.156185|    0.005977|
|         292|   -2.401412|    0.156202|    0.005956|
|         293|   -2.406638|    0.156220|    0.005936|
|         294|   -2.411949|    0.156238|    0.005915|
|         295|   -2.417343|    0.156256|    0.005895|
|         296|   -2.422823|    0.156275|    0.005875|
|         297|   -2.428391|    0.156294|    0.005854|
|         298|   -2.434047|    0.156313|    0.005834|
|         299|   -2.439791|    0.156333|    0.005814|
|         300|   -2.445620|    0.156353|    0.005794|
|         301|   -2.451532|    0.156374|    0.005774|
|         302|   -2.457525|    0.156395|    0.005754|
|         303|   -2.463591|    0.156416|    0.005735|
|         304|   -2.469725|    0.156438|    0.005715|
|         305|   -2.475916|    0.156460|    0.005695|
|         306|   -2.482155|    0.156482|    0.005676|
|         307|   -2.488432|    0.156505|    0.005656|
|         308|   -2.494734|    0.156529|    0.005637|
|         309|   -2.501046|    0.156553|    0.005617|
|         310|   -2.507356|    0.156578|    0.005598|
|         311|   -2.513649|    0.156603|    0.005579|
|         312|   -2.519911|    0.156628|    0.005560|
|         313|   -2.526127|    0.156654|    0.005541|
|         314|   -2.532284|    0.156681|    0.005522|
|         315|   -2.538368|    0.156709|    0.005503|
|         316|   -2.544367|    0.156737|    0.005484|
|         317|   -2.550272|    0.156765|    0.005465|
|         318|   -2.556075|    0.156795|    0.005446|
|         319|   -2.561772|    0.156824|    0.005427|
|         320|   -2.567360|    0.156855|    0.005409|
|         321|   -2.572839|    0.156887|    0.005390|
|         322|   -2.578211|    0.156919|    0.005371|
|         323|   -2.583485|    0.156952|    0.005353|
|         324|   -2.588667|    0.156986|    0.005335|
|         325|   -2.593770|    0.157020|    0.005316|
|         326|   -2.598806|    0.157056|    0.005298|
|         327|   -2.603789|    0.157092|    0.005280|
|         328|   -2.608733|    0.157129|    0.005261|
|         329|   -2.613655|    0.157167|    0.005243|
|         330|   -2.618568|    0.157206|    0.005225|
|         331|   -2.623487|    0.157246|    0.005207|
|         332|   -2.628426|    0.157287|    0.005189|
|         333|   -2.633397|    0.157329|    0.005171|
|         334|   -2.638409|    0.157372|    0.005153|
|         335|   -2.643471|    0.157416|    0.005136|
|         336|   -2.648588|    0.157462|    0.005118|
|         337|   -2.653762|    0.157508|    0.005100|
|         338|   -2.658993|    0.157556|    0.005083|
|         339|   -2.664279|    0.157604|    0.005065|
|         340|   -2.669613|    0.157654|    0.005047|
|         341|   -2.674989|    0.157705|    0.005030|
|         342|   -2.680395|    0.157758|    0.005013|
|         343|   -2.685820|    0.157811|    0.004995|
|         344|   -2.691248|    0.157866|    0.004978|
|         345|   -2.696664|    0.157922|    0.004961|
|         346|   -2.702053|    0.157980|    0.004944|
|         347|   -2.707398|    0.158038|    0.004927|
|         348|   -2.712682|    0.158099|    0.004910|
|         349|   -2.717891|    0.158160|    0.004894|
|         350|   -2.723010|    0.158223|    0.004877|
|         351|   -2.728028|    0.158288|    0.004860|
|         352|   -2.732932|    0.158353|    0.004844|
|         353|   -2.737716|    0.158421|    0.004828|
|         354|   -2.742374|    0.158489|    0.004811|
|         355|   -2.746902|    0.158560|    0.004795|
|         356|   -2.751302|    0.158631|    0.004779|
|         357|   -2.755574|    0.158704|    0.004763|
|         358|   -2.759723|    0.158779|    0.004748|
|         359|   -2.763757|    0.158855|    0.004732|
|         360|   -2.767684|    0.158933|    0.004716|
|         361|   -2.771514|    0.159012|    0.004701|
|         362|   -2.775258|    0.159093|    0.004686|
|         363|   -2.778927|    0.159175|    0.004671|
|         364|   -2.782531|    0.159258|    0.004656|
|         365|   -2.786083|    0.159344|    0.004641|
|         366|   -2.789591|    0.159430|    0.004627|
|         367|   -2.793063|    0.159519|    0.004613|
|         368|   -2.796508|    0.159608|    0.004599|
|         369|   -2.799932|    0.159700|    0.004585|
|         370|   -2.803338|    0.159792|    0.004571|
|         371|   -2.806730|    0.159887|    0.004558|
|         372|   -2.810110|    0.159982|    0.004544|
|         373|   -2.813476|    0.160079|    0.004531|
|         374|   -2.816828|    0.160178|    0.004519|
|         375|   -2.820163|    0.160278|    0.004506|
|         376|   -2.823476|    0.160379|    0.004494|
|         377|   -2.826765|    0.160482|    0.004482|
|         378|   -2.830023|    0.160586|    0.004471|
|         379|   -2.833246|    0.160692|    0.004459|
|         380|   -2.836428|    0.160798|    0.004448|
|         381|   -2.839565|    0.160906|    0.004438|
|         382|   -2.842651|    0.161016|    0.004427|
|         383|   -2.845683|    0.161126|    0.004417|
|         384|   -2.848658|    0.161238|    0.004408|
|         385|   -2.851574|    0.161350|    0.004399|
|         386|   -2.854429|    0.161464|    0.004390|
|         387|   -2.857222|    0.161579|    0.004381|
|         388|   -2.859955|    0.161695|    0.004373|
|         389|   -2.862628|    0.161812|    0.004366|
|         390|   -2.865245|    0.161930|    0.004358|
|         391|   -2.867807|    0.162049|    0.004352|
|         392|   -2.870319|    0.162169|    0.004345|
|         393|   -2.872784|    0.162289|    0.004339|
|         394|   -2.875205|    0.162410|    0.004334|
|         395|   -2.877587|    0.162532|    0.004329|
|         396|   -2.879935|    0.162655|    0.004325|
|         397|   -2.882251|    0.162778|    0.004321|
|         398|   -2.884540|    0.162901|    0.004317|
|         399|   -2.886805|    0.163025|    0.004315|
|         400|   -2.889051|    0.163150|    0.004312|
|         401|   -2.891278|    0.163275|    0.004311|
|         402|   -2.893490|    0.163400|    0.004309|
|         403|   -2.895687|    0.163525|    0.004309|
|         404|   -2.897872|    0.163650|    0.004309|
|         405|   -2.900046|    0.163776|    0.004309|
|         406|   -2.902208|    0.163901|    0.004311|
|         407|   -2.904359|    0.164027|    0.004312|
|         408|   -2.906499|    0.164152|    0.004315|
|         409|   -2.908626|    0.164277|    0.004318|
|         410|   -2.910740|    0.164401|    0.004322|
|         411|   -2.912841|    0.164526|    0.004326|
|         412|   -2.914928|    0.164649|    0.004331|
|         413|   -2.916999|    0.164772|    0.004337|
|         414|   -2.919053|    0.164895|    0.004343|
|         415|   -2.921089|    0.165017|    0.004350|
|         416|   -2.923106|    0.165138|    0.004358|
|         417|   -2.925104|    0.165258|    0.004367|
|         418|   -2.927081|    0.165377|    0.004376|
|         419|   -2.929037|    0.165495|    0.004386|
|         420|   -2.930970|    0.165612|    0.004396|
|         421|   -2.932881|    0.165727|    0.004407|
|         422|   -2.934768|    0.165841|    0.004419|
|         423|   -2.936631|    0.165954|    0.004432|
|         424|   -2.938470|    0.166065|    0.004445|
|         425|   -2.940285|    0.166175|    0.004460|
|         426|   -2.942076|    0.166283|    0.004474|
|         427|   -2.943842|    0.166389|    0.004490|
|         428|   -2.945584|    0.166493|    0.004506|
|         429|   -2.947302|    0.166596|    0.004523|
|         430|   -2.948995|    0.166696|    0.004541|
|         431|   -2.950664|    0.166794|    0.004559|
|         432|   -2.952310|    0.166890|    0.004578|
|         433|   -2.953931|    0.166983|    0.004598|
|         434|   -2.955529|    0.167074|    0.004618|
|         435|   -2.957104|    0.167163|    0.004639|
|         436|   -2.958656|    0.167249|    0.004661|
|         437|   -2.960186|    0.167332|    0.004683|
|         438|   -2.961695|    0.167413|    0.004706|
|         439|   -2.963183|    0.167491|    0.004729|
|         440|   -2.964651|    0.167566|    0.004753|
|         441|   -2.966099|    0.167638|    0.004778|
|         442|   -2.967528|    0.167707|    0.004804|
|         443|   -2.968938|    0.167773|    0.004829|
|         444|   -2.970331|    0.167835|    0.004856|
|         445|   -2.971707|    0.167895|    0.004883|
|         446|   -2.973068|    0.167951|    0.004910|
|         447|   -2.974414|    0.168004|    0.004938|
|         448|   -2.975747|    0.168053|    0.004967|
|         449|   -2.977067|    0.168099|    0.004995|
|         450|   -2.978376|    0.168142|    0.005025|
|         451|   -2.979674|    0.168181|    0.005054|
|         452|   -2.980962|    0.168216|    0.005084|
|         453|   -2.982242|    0.168248|    0.005115|
|         454|   -2.983514|    0.168276|    0.005146|
|         455|   -2.984779|    0.168301|    0.005177|
|         456|   -2.986037|    0.168322|    0.005208|
|         457|   -2.987290|    0.168339|    0.005240|
|         458|   -2.988537|    0.168352|    0.005271|
|         459|   -2.989781|    0.168362|    0.005303|
|         460|   -2.991020|    0.168368|    0.005336|
|         461|   -2.992256|    0.168370|    0.005368|
|         462|   -2.993490|    0.168368|    0.005400|
|         463|   -2.994720|    0.168363|    0.005433|
|         464|   -2.995948|    0.168354|    0.005465|
|         465|   -2.997174|    0.168341|    0.005498|
|         466|   -2.998398|    0.168325|    0.005530|
|         467|   -2.999619|    0.168305|    0.005563|
|         468|   -3.000839|    0.168281|    0.005595|
|         469|   -3.002056|    0.168253|    0.005627|
|         470|   -3.003270|    0.168222|    0.005660|
|         471|   -3.004481|    0.168188|    0.005691|
|         472|   -3.005688|    0.168150|    0.005723|
|         473|   -3.006892|    0.168108|    0.005755|
|         474|   -3.008091|    0.168064|    0.005786|
|         475|   -3.009286|    0.168016|    0.005817|
|         476|   -3.010475|    0.167964|    0.005847|
|         477|   -3.011658|    0.167910|    0.005877|
|         478|   -3.012835|    0.167852|    0.005907|
|         479|   -3.014005|    0.167791|    0.005936|
|         480|   -3.015168|    0.167728|    0.005965|
|         481|   -3.016323|    0.167661|    0.005994|
|         482|   -3.017469|    0.167592|    0.006021|
|         483|   -3.018605|    0.167520|    0.006049|
|         484|   -3.019732|    0.167445|    0.006075|
|         485|   -3.020849|    0.167368|    0.006101|
|         486|   -3.021955|    0.167288|    0.006126|
|         487|   -3.023050|    0.167206|    0.006151|
|         488|   -3.024133|    0.167122|    0.006175|
|         489|   -3.025203|    0.167036|    0.006198|
|         490|   -3.026261|    0.166948|    0.006220|
|         491|   -3.027305|    0.166858|    0.006242|
|         492|   -3.028336|    0.166765|    0.006263|
|         493|   -3.029353|    0.166672|    0.006283|
|         494|   -3.030357|    0.166576|    0.006302|
|         495|   -3.031346|    0.166480|    0.006320|
|         496|   -3.032322|    0.166382|    0.006337|
|         497|   -3.033282|    0.166282|    0.006353|
|         498|   -3.034229|    0.166182|    0.006368|
|         499|   -3.035161|    0.166080|    0.006383|
|         500|   -3.036078|    0.165977|    0.006396|
+-----------------------------------------------------------------------+
|        File Writing Summary       |              Filename             |
+-----------------------------------------------------------------------+
|SU2 binary restart                 |restart_flow.dat                   |
|CSV file                           |surface_flow.csv                   |
+-----------------------------------------------------------------------+
+---------------------------------------------------+
|  Inner_Iter|    rms[Rho]|          CL|          CD|
+---------------------------------------------------+
|         501|   -3.036982|    0.165874|    0.006408|
|         502|   -3.037872|    0.165770|    0.006419|
|         503|   -3.038748|    0.165665|    0.006430|
|         504|   -3.039610|    0.165560|    0.006439|
|         505|   -3.040459|    0.165455|    0.006447|
|         506|   -3.041295|    0.165349|    0.006454|
|         507|   -3.042118|    0.165243|    0.006459|
|         508|   -3.042929|    0.165137|    0.006464|
|         509|   -3.043729|    0.165031|    0.006467|
|         510|   -3.044517|    0.164925|    0.006470|
|         511|   -3.045294|    0.164819|    0.006471|
|         512|   -3.046061|    0.164713|    0.006471|
|         513|   -3.046817|    0.164608|    0.006470|
|         514|   -3.047565|    0.164504|    0.006467|
|         515|   -3.048304|    0.164400|    0.006464|
|         516|   -3.049034|    0.164296|    0.006459|
|         517|   -3.049757|    0.164193|    0.006453|
|         518|   -3.050473|    0.164091|    0.006446|
|         519|   -3.051181|    0.163990|    0.006438|
|         520|   -3.051883|    0.163890|    0.006428|
|         521|   -3.052580|    0.163791|    0.006418|
|         522|   -3.053271|    0.163693|    0.006406|
|         523|   -3.053957|    0.163595|    0.006393|
|         524|   -3.054638|    0.163499|    0.006379|
|         525|   -3.055315|    0.163405|    0.006363|
|         526|   -3.055988|    0.163311|    0.006346|
|         527|   -3.056657|    0.163219|    0.006329|
|         528|   -3.057323|    0.163128|    0.006310|
|         529|   -3.057985|    0.163038|    0.006290|
|         530|   -3.058645|    0.162950|    0.006268|
|         531|   -3.059301|    0.162863|    0.006246|
|         532|   -3.059955|    0.162778|    0.006223|
|         533|   -3.060607|    0.162693|    0.006198|
|         534|   -3.061255|    0.162611|    0.006172|
|         535|   -3.061901|    0.162530|    0.006146|
|         536|   -3.062545|    0.162450|    0.006118|
|         537|   -3.063186|    0.162372|    0.006089|
|         538|   -3.063824|    0.162295|    0.006059|
|         539|   -3.064460|    0.162220|    0.006028|
|         540|   -3.065093|    0.162146|    0.005996|
|         541|   -3.065723|    0.162074|    0.005963|
|         542|   -3.066350|    0.162003|    0.005929|
|         543|   -3.066974|    0.161933|    0.005894|
|         544|   -3.067594|    0.161865|    0.005858|
|         545|   -3.068211|    0.161798|    0.005821|
|         546|   -3.068823|    0.161733|    0.005783|
|         547|   -3.069432|    0.161669|    0.005744|
|         548|   -3.070036|    0.161606|    0.005705|
|         549|   -3.070636|    0.161545|    0.005664|
|         550|   -3.071230|    0.161485|    0.005623|
|         551|   -3.071820|    0.161426|    0.005581|
|         552|   -3.072404|    0.161368|    0.005538|
|         553|   -3.072982|    0.161312|    0.005495|
|         554|   -3.073555|    0.161256|    0.005450|
|         555|   -3.074121|    0.161202|    0.005405|
|         556|   -3.074681|    0.161148|    0.005359|
|         557|   -3.075234|    0.161096|    0.005313|
|         558|   -3.075780|    0.161044|    0.005266|
|         559|   -3.076320|    0.160994|    0.005218|
|         560|   -3.076852|    0.160944|    0.005170|
|         561|   -3.077377|    0.160895|    0.005121|
|         562|   -3.077895|    0.160846|    0.005071|
|         563|   -3.078405|    0.160799|    0.005021|
|         564|   -3.078907|    0.160752|    0.004970|
|         565|   -3.079402|    0.160706|    0.004919|
|         566|   -3.079889|    0.160660|    0.004867|
|         567|   -3.080368|    0.160615|    0.004815|
|         568|   -3.080840|    0.160570|    0.004763|
|         569|   -3.081303|    0.160525|    0.004710|
|         570|   -3.081758|    0.160481|    0.004656|
|         571|   -3.082206|    0.160437|    0.004602|
|         572|   -3.082645|    0.160394|    0.004548|
|         573|   -3.083077|    0.160351|    0.004494|
|         574|   -3.083501|    0.160308|    0.004439|
|         575|   -3.083917|    0.160265|    0.004384|
|         576|   -3.084325|    0.160222|    0.004328|
|         577|   -3.084725|    0.160179|    0.004273|
|         578|   -3.085118|    0.160136|    0.004217|
|         579|   -3.085503|    0.160093|    0.004161|
|         580|   -3.085881|    0.160050|    0.004105|
|         581|   -3.086252|    0.160007|    0.004048|
|         582|   -3.086615|    0.159964|    0.003992|
|         583|   -3.086970|    0.159920|    0.003935|
|         584|   -3.087319|    0.159877|    0.003878|
|         585|   -3.087660|    0.159833|    0.003821|
|         586|   -3.087995|    0.159789|    0.003764|
|         587|   -3.088323|    0.159744|    0.003707|
|         588|   -3.088644|    0.159699|    0.003650|
|         589|   -3.088958|    0.159654|    0.003593|
|         590|   -3.089266|    0.159608|    0.003536|
|         591|   -3.089567|    0.159562|    0.003479|
|         592|   -3.089862|    0.159516|    0.003422|
|         593|   -3.090150|    0.159469|    0.003365|
|         594|   -3.090432|    0.159421|    0.003308|
|         595|   -3.090708|    0.159373|    0.003251|
|         596|   -3.090978|    0.159325|    0.003194|
|         597|   -3.091242|    0.159276|    0.003137|
|         598|   -3.091499|    0.159226|    0.003080|
|         599|   -3.091751|    0.159176|    0.003024|
|         600|   -3.091997|    0.159126|    0.002967|
|         601|   -3.092237|    0.159074|    0.002911|
|         602|   -3.092471|    0.159023|    0.002855|
|         603|   -3.092700|    0.158970|    0.002799|
|         604|   -3.092923|    0.158917|    0.002743|
|         605|   -3.093140|    0.158864|    0.002688|
|         606|   -3.093352|    0.158810|    0.002632|
|         607|   -3.093558|    0.158755|    0.002577|
|         608|   -3.093758|    0.158700|    0.002522|
|         609|   -3.093954|    0.158644|    0.002468|
|         610|   -3.094143|    0.158588|    0.002413|
|         611|   -3.094328|    0.158531|    0.002359|
|         612|   -3.094506|    0.158474|    0.002305|
|         613|   -3.094680|    0.158416|    0.002251|
|         614|   -3.094848|    0.158357|    0.002198|
|         615|   -3.095011|    0.158298|    0.002144|
|         616|   -3.095169|    0.158239|    0.002091|
|         617|   -3.095321|    0.158179|    0.002039|
|         618|   -3.095468|    0.158119|    0.001986|
|         619|   -3.095610|    0.158058|    0.001934|
|         620|   -3.095747|    0.157997|    0.001883|
|         621|   -3.095878|    0.157935|    0.001831|
|         622|   -3.096005|    0.157873|    0.001780|
|         623|   -3.096127|    0.157811|    0.001729|
|         624|   -3.096243|    0.157749|    0.001678|
|         625|   -3.096355|    0.157686|    0.001628|
|         626|   -3.096461|    0.157623|    0.001578|
|         627|   -3.096563|    0.157559|    0.001529|
|         628|   -3.096659|    0.157496|    0.001479|
|         629|   -3.096751|    0.157432|    0.001430|
|         630|   -3.096838|    0.157368|    0.001382|
|         631|   -3.096921|    0.157304|    0.001333|
|         632|   -3.096998|    0.157240|    0.001285|
|         633|   -3.097071|    0.157176|    0.001238|
|         634|   -3.097139|    0.157111|    0.001190|
|         635|   -3.097203|    0.157047|    0.001143|
|         636|   -3.097261|    0.156982|    0.001096|
|         637|   -3.097315|    0.156918|    0.001050|
|         638|   -3.097365|    0.156854|    0.001004|
|         639|   -3.097410|    0.156790|    0.000958|
|         640|   -3.097451|    0.156726|    0.000913|
|         641|   -3.097487|    0.156662|    0.000868|
|         642|   -3.097519|    0.156598|    0.000823|
|         643|   -3.097547|    0.156534|    0.000778|
|         644|   -3.097570|    0.156471|    0.000734|
|         645|   -3.097590|    0.156408|    0.000691|
|         646|   -3.097606|    0.156345|    0.000647|
|         647|   -3.097618|    0.156283|    0.000604|
|         648|   -3.097626|    0.156221|    0.000561|
|         649|   -3.097631|    0.156159|    0.000518|
|         650|   -3.097632|    0.156098|    0.000476|
|         651|   -3.097630|    0.156037|    0.000434|
|         652|   -3.097625|    0.155976|    0.000393|
|         653|   -3.097616|    0.155916|    0.000351|
|         654|   -3.097605|    0.155857|    0.000310|
|         655|   -3.097591|    0.155798|    0.000270|
|         656|   -3.097574|    0.155739|    0.000229|
|         657|   -3.097555|    0.155682|    0.000189|
|         658|   -3.097534|    0.155624|    0.000149|
|         659|   -3.097510|    0.155568|    0.000110|
|         660|   -3.097485|    0.155512|    0.000071|
|         661|   -3.097459|    0.155456|    0.000032|
|         662|   -3.097431|    0.155402|   -0.000007|
|         663|   -3.097402|    0.155348|   -0.000045|
|         664|   -3.097372|    0.155294|   -0.000083|
|         665|   -3.097341|    0.155242|   -0.000121|
|         666|   -3.097310|    0.155190|   -0.000159|
|         667|   -3.097279|    0.155139|   -0.000196|
|         668|   -3.097248|    0.155089|   -0.000233|
|         669|   -3.097217|    0.155039|   -0.000270|
|         670|   -3.097188|    0.154991|   -0.000306|
|         671|   -3.097158|    0.154943|   -0.000342|
|         672|   -3.097131|    0.154896|   -0.000378|
|         673|   -3.097104|    0.154850|   -0.000414|
|         674|   -3.097080|    0.154805|   -0.000449|
|         675|   -3.097057|    0.154760|   -0.000484|
|         676|   -3.097036|    0.154717|   -0.000519|
|         677|   -3.097018|    0.154674|   -0.000553|
|         678|   -3.097003|    0.154632|   -0.000588|
|         679|   -3.096991|    0.154592|   -0.000622|
|         680|   -3.096981|    0.154552|   -0.000655|
|         681|   -3.096976|    0.154513|   -0.000689|
|         682|   -3.096974|    0.154475|   -0.000722|
|         683|   -3.096976|    0.154437|   -0.000755|
|         684|   -3.096982|    0.154401|   -0.000788|
|         685|   -3.096993|    0.154366|   -0.000820|
|         686|   -3.097009|    0.154332|   -0.000853|
|         687|   -3.097029|    0.154298|   -0.000885|
|         688|   -3.097055|    0.154266|   -0.000916|
|         689|   -3.097085|    0.154234|   -0.000948|
|         690|   -3.097121|    0.154203|   -0.000979|
|         691|   -3.097163|    0.154174|   -0.001010|
|         692|   -3.097210|    0.154145|   -0.001041|
|         693|   -3.097262|    0.154117|   -0.001071|
|         694|   -3.097321|    0.154090|   -0.001102|
|         695|   -3.097385|    0.154064|   -0.001132|
|         696|   -3.097455|    0.154039|   -0.001161|
|         697|   -3.097531|    0.154015|   -0.001191|
|         698|   -3.097613|    0.153992|   -0.001220|
|         699|   -3.097700|    0.153970|   -0.001249|
|         700|   -3.097794|    0.153948|   -0.001278|
|         701|   -3.097894|    0.153928|   -0.001307|
|         702|   -3.097999|    0.153908|   -0.001335|
|         703|   -3.098110|    0.153889|   -0.001363|
|         704|   -3.098227|    0.153872|   -0.001391|
|         705|   -3.098350|    0.153855|   -0.001419|
|         706|   -3.098478|    0.153839|   -0.001446|
|         707|   -3.098611|    0.153823|   -0.001473|
|         708|   -3.098749|    0.153809|   -0.001500|
|         709|   -3.098893|    0.153795|   -0.001527|
|         710|   -3.099041|    0.153783|   -0.001553|
|         711|   -3.099195|    0.153771|   -0.001579|
|         712|   -3.099353|    0.153759|   -0.001605|
|         713|   -3.099515|    0.153749|   -0.001631|
|         714|   -3.099682|    0.153740|   -0.001656|
|         715|   -3.099852|    0.153731|   -0.001681|
|         716|   -3.100027|    0.153723|   -0.001706|
|         717|   -3.100204|    0.153716|   -0.001731|
|         718|   -3.100385|    0.153709|   -0.001756|
|         719|   -3.100570|    0.153703|   -0.001780|
|         720|   -3.100756|    0.153698|   -0.001804|
|         721|   -3.100946|    0.153694|   -0.001828|
|         722|   -3.101137|    0.153690|   -0.001851|
|         723|   -3.101330|    0.153687|   -0.001874|
|         724|   -3.101525|    0.153685|   -0.001897|
|         725|   -3.101722|    0.153683|   -0.001920|
|         726|   -3.101919|    0.153682|   -0.001943|
|         727|   -3.102117|    0.153682|   -0.001965|
|         728|   -3.102316|    0.153682|   -0.001987|
|         729|   -3.102515|    0.153683|   -0.002009|
|         730|   -3.102714|    0.153685|   -0.002031|
|         731|   -3.102913|    0.153687|   -0.002052|
|         732|   -3.103111|    0.153689|   -0.002073|
|         733|   -3.103308|    0.153692|   -0.002094|
|         734|   -3.103505|    0.153696|   -0.002115|
|         735|   -3.103701|    0.153701|   -0.002135|
|         736|   -3.103895|    0.153705|   -0.002155|
|         737|   -3.104088|    0.153711|   -0.002175|
|         738|   -3.104280|    0.153717|   -0.002195|
|         739|   -3.104470|    0.153723|   -0.002214|
|         740|   -3.104658|    0.153730|   -0.002233|
|         741|   -3.104845|    0.153737|   -0.002252|
|         742|   -3.105030|    0.153745|   -0.002271|
|         743|   -3.105213|    0.153754|   -0.002289|
|         744|   -3.105394|    0.153762|   -0.002308|
|         745|   -3.105574|    0.153772|   -0.002326|
|         746|   -3.105751|    0.153781|   -0.002343|
|         747|   -3.105927|    0.153791|   -0.002361|
|         748|   -3.106101|    0.153802|   -0.002378|
|         749|   -3.106273|    0.153813|   -0.002395|
|         750|   -3.106444|    0.153824|   -0.002412|
+-----------------------------------------------------------------------+
|        File Writing Summary       |              Filename             |
+-----------------------------------------------------------------------+
|SU2 binary restart                 |restart_flow.dat                   |
|CSV file                           |surface_flow.csv                   |
+-----------------------------------------------------------------------+
+---------------------------------------------------+
|  Inner_Iter|    rms[Rho]|          CL|          CD|
+---------------------------------------------------+
|         751|   -3.106613|    0.153835|   -0.002428|
|         752|   -3.106781|    0.153847|   -0.002445|
|         753|   -3.106948|    0.153860|   -0.002461|
|         754|   -3.107114|    0.153872|   -0.002477|
|         755|   -3.107279|    0.153885|   -0.002492|
|         756|   -3.107444|    0.153899|   -0.002507|
|         757|   -3.107609|    0.153912|   -0.002523|
|         758|   -3.107773|    0.153926|   -0.002537|
|         759|   -3.107938|    0.153941|   -0.002552|
|         760|   -3.108103|    0.153955|   -0.002566|
|         761|   -3.108269|    0.153970|   -0.002581|
|         762|   -3.108435|    0.153986|   -0.002594|
|         763|   -3.108603|    0.154001|   -0.002608|
|         764|   -3.108773|    0.154017|   -0.002622|
|         765|   -3.108945|    0.154033|   -0.002635|
|         766|   -3.109119|    0.154049|   -0.002648|
|         767|   -3.109296|    0.154066|   -0.002660|
|         768|   -3.109476|    0.154082|   -0.002673|
|         769|   -3.109660|    0.154099|   -0.002685|
|         770|   -3.109847|    0.154116|   -0.002697|
|         771|   -3.110039|    0.154134|   -0.002709|
|         772|   -3.110235|    0.154152|   -0.002721|
|         773|   -3.110436|    0.154169|   -0.002732|
|         774|   -3.110642|    0.154187|   -0.002743|
|         775|   -3.110854|    0.154206|   -0.002754|
|         776|   -3.111072|    0.154224|   -0.002765|
|         777|   -3.111296|    0.154243|   -0.002775|
|         778|   -3.111527|    0.154262|   -0.002785|
|         779|   -3.111764|    0.154281|   -0.002795|
|         780|   -3.112009|    0.154300|   -0.002805|
|         781|   -3.112261|    0.154319|   -0.002815|
|         782|   -3.112521|    0.154339|   -0.002824|
|         783|   -3.112790|    0.154358|   -0.002833|
|         784|   -3.113066|    0.154378|   -0.002842|
|         785|   -3.113351|    0.154398|   -0.002850|
|         786|   -3.113645|    0.154418|   -0.002859|
|         787|   -3.113948|    0.154438|   -0.002867|
|         788|   -3.114261|    0.154458|   -0.002875|
|         789|   -3.114583|    0.154479|   -0.002883|
|         790|   -3.114915|    0.154499|   -0.002890|
|         791|   -3.115257|    0.154520|   -0.002898|
|         792|   -3.115609|    0.154541|   -0.002905|
|         793|   -3.115972|    0.154562|   -0.002912|
|         794|   -3.116345|    0.154583|   -0.002918|
|         795|   -3.116728|    0.154604|   -0.002925|
|         796|   -3.117123|    0.154625|   -0.002931|
|         797|   -3.117528|    0.154646|   -0.002937|
|         798|   -3.117943|    0.154667|   -0.002943|
|         799|   -3.118370|    0.154689|   -0.002948|
|         800|   -3.118807|    0.154710|   -0.002954|
|         801|   -3.119256|    0.154732|   -0.002959|
|         802|   -3.119715|    0.154753|   -0.002964|
|         803|   -3.120185|    0.154775|   -0.002969|
|         804|   -3.120667|    0.154797|   -0.002973|
|         805|   -3.121159|    0.154819|   -0.002978|
|         806|   -3.121662|    0.154840|   -0.002982|
|         807|   -3.122175|    0.154862|   -0.002986|
|         808|   -3.122700|    0.154884|   -0.002990|
|         809|   -3.123235|    0.154906|   -0.002993|
|         810|   -3.123780|    0.154928|   -0.002996|
|         811|   -3.124336|    0.154950|   -0.003000|
|         812|   -3.124903|    0.154972|   -0.003002|
|         813|   -3.125479|    0.154994|   -0.003005|
|         814|   -3.126065|    0.155016|   -0.003008|
|         815|   -3.126661|    0.155038|   -0.003010|
|         816|   -3.127267|    0.155060|   -0.003012|
|         817|   -3.127883|    0.155082|   -0.003014|
|         818|   -3.128508|    0.155104|   -0.003016|
|         819|   -3.129142|    0.155126|   -0.003017|
|         820|   -3.129786|    0.155148|   -0.003019|
|         821|   -3.130438|    0.155170|   -0.003020|
|         822|   -3.131099|    0.155192|   -0.003021|
|         823|   -3.131769|    0.155213|   -0.003021|
|         824|   -3.132448|    0.155235|   -0.003022|
|         825|   -3.133135|    0.155257|   -0.003022|
|         826|   -3.133829|    0.155279|   -0.003022|
|         827|   -3.134532|    0.155301|   -0.003022|
|         828|   -3.135243|    0.155322|   -0.003022|
|         829|   -3.135961|    0.155344|   -0.003022|
|         830|   -3.136686|    0.155366|   -0.003021|
|         831|   -3.137419|    0.155387|   -0.003020|
|         832|   -3.138159|    0.155409|   -0.003019|
|         833|   -3.138906|    0.155430|   -0.003018|
|         834|   -3.139659|    0.155451|   -0.003017|
|         835|   -3.140420|    0.155472|   -0.003015|
|         836|   -3.141187|    0.155494|   -0.003013|
|         837|   -3.141961|    0.155515|   -0.003011|
|         838|   -3.142742|    0.155536|   -0.003009|
|         839|   -3.143528|    0.155556|   -0.003007|
|         840|   -3.144321|    0.155577|   -0.003004|
|         841|   -3.145121|    0.155598|   -0.003002|
|         842|   -3.145926|    0.155618|   -0.002999|
|         843|   -3.146738|    0.155639|   -0.002996|
|         844|   -3.147555|    0.155659|   -0.002992|
|         845|   -3.148379|    0.155679|   -0.002989|
|         846|   -3.149209|    0.155699|   -0.002985|
|         847|   -3.150045|    0.155719|   -0.002981|
|         848|   -3.150887|    0.155739|   -0.002977|
|         849|   -3.151736|    0.155758|   -0.002973|
|         850|   -3.152590|    0.155777|   -0.002969|
|         851|   -3.153451|    0.155797|   -0.002964|
|         852|   -3.154317|    0.155816|   -0.002959|
|         853|   -3.155190|    0.155835|   -0.002954|
|         854|   -3.156070|    0.155854|   -0.002949|
|         855|   -3.156955|    0.155872|   -0.002944|
|         856|   -3.157847|    0.155891|   -0.002939|
|         857|   -3.158745|    0.155909|   -0.002933|
|         858|   -3.159650|    0.155927|   -0.002927|
|         859|   -3.160562|    0.155945|   -0.002921|
|         860|   -3.161481|    0.155962|   -0.002915|
|         861|   -3.162406|    0.155980|   -0.002908|
|         862|   -3.163339|    0.155997|   -0.002902|
|         863|   -3.164279|    0.156014|   -0.002895|
|         864|   -3.165226|    0.156031|   -0.002888|
|         865|   -3.166180|    0.156047|   -0.002881|
|         866|   -3.167142|    0.156064|   -0.002874|
|         867|   -3.168112|    0.156080|   -0.002866|
|         868|   -3.169090|    0.156096|   -0.002859|
|         869|   -3.170075|    0.156111|   -0.002851|
|         870|   -3.171069|    0.156127|   -0.002843|
|         871|   -3.172071|    0.156142|   -0.002835|
|         872|   -3.173081|    0.156157|   -0.002826|
|         873|   -3.174099|    0.156171|   -0.002818|
|         874|   -3.175126|    0.156186|   -0.002809|
|         875|   -3.176161|    0.156200|   -0.002801|
|         876|   -3.177206|    0.156214|   -0.002792|
|         877|   -3.178259|    0.156228|   -0.002782|
|         878|   -3.179321|    0.156241|   -0.002773|
|         879|   -3.180392|    0.156254|   -0.002764|
|         880|   -3.181472|    0.156267|   -0.002754|
|         881|   -3.182562|    0.156279|   -0.002744|
|         882|   -3.183660|    0.156292|   -0.002734|
|         883|   -3.184769|    0.156304|   -0.002724|
|         884|   -3.185886|    0.156315|   -0.002714|
|         885|   -3.187013|    0.156327|   -0.002703|
|         886|   -3.188150|    0.156338|   -0.002693|
|         887|   -3.189296|    0.156349|   -0.002682|
|         888|   -3.190452|    0.156359|   -0.002671|
|         889|   -3.191617|    0.156370|   -0.002660|
|         890|   -3.192792|    0.156380|   -0.002648|
|         891|   -3.193976|    0.156389|   -0.002637|
|         892|   -3.195170|    0.156399|   -0.002625|
|         893|   -3.196373|    0.156408|   -0.002614|
|         894|   -3.197585|    0.156417|   -0.002602|
|         895|   -3.198807|    0.156425|   -0.002590|
|         896|   -3.200037|    0.156434|   -0.002578|
|         897|   -3.201278|    0.156442|   -0.002565|
|         898|   -3.202527|    0.156449|   -0.002553|
|         899|   -3.203785|    0.156457|   -0.002540|
|         900|   -3.205052|    0.156464|   -0.002528|
|         901|   -3.206328|    0.156471|   -0.002515|
|         902|   -3.207612|    0.156477|   -0.002502|
|         903|   -3.208905|    0.156483|   -0.002489|
|         904|   -3.210207|    0.156489|   -0.002475|
|         905|   -3.211516|    0.156495|   -0.002462|
|         906|   -3.212834|    0.156500|   -0.002448|
|         907|   -3.214160|    0.156506|   -0.002435|
|         908|   -3.215494|    0.156510|   -0.002421|
|         909|   -3.216835|    0.156515|   -0.002407|
|         910|   -3.218184|    0.156519|   -0.002393|
|         911|   -3.219540|    0.156523|   -0.002379|
|         912|   -3.220904|    0.156527|   -0.002365|
|         913|   -3.222274|    0.156530|   -0.002350|
|         914|   -3.223652|    0.156533|   -0.002336|
|         915|   -3.225035|    0.156536|   -0.002321|
|         916|   -3.226425|    0.156539|   -0.002306|
|         917|   -3.227821|    0.156541|   -0.002291|
|         918|   -3.229223|    0.156544|   -0.002277|
|         919|   -3.230631|    0.156546|   -0.002261|
|         920|   -3.232044|    0.156547|   -0.002246|
|         921|   -3.233462|    0.156549|   -0.002231|
|         922|   -3.234884|    0.156550|   -0.002216|
|         923|   -3.236312|    0.156551|   -0.002200|
|         924|   -3.237744|    0.156551|   -0.002185|
|         925|   -3.239180|    0.156552|   -0.002169|
|         926|   -3.240620|    0.156552|   -0.002154|
|         927|   -3.242064|    0.156552|   -0.002138|
|         928|   -3.243510|    0.156552|   -0.002122|
|         929|   -3.244960|    0.156552|   -0.002106|
|         930|   -3.246413|    0.156551|   -0.002090|
|         931|   -3.247868|    0.156551|   -0.002074|
|         932|   -3.249325|    0.156550|   -0.002058|
|         933|   -3.250784|    0.156549|   -0.002042|
|         934|   -3.252244|    0.156547|   -0.002026|
|         935|   -3.253706|    0.156546|   -0.002009|
|         936|   -3.255170|    0.156544|   -0.001993|
|         937|   -3.256634|    0.156543|   -0.001977|
|         938|   -3.258098|    0.156541|   -0.001960|
|         939|   -3.259564|    0.156539|   -0.001944|
|         940|   -3.261029|    0.156537|   -0.001927|
|         941|   -3.262495|    0.156534|   -0.001911|
|         942|   -3.263960|    0.156532|   -0.001894|
|         943|   -3.265425|    0.156530|   -0.001878|
|         944|   -3.266889|    0.156527|   -0.001861|
|         945|   -3.268352|    0.156524|   -0.001844|
|         946|   -3.269814|    0.156522|   -0.001828|
|         947|   -3.271275|    0.156519|   -0.001811|
|         948|   -3.272734|    0.156516|   -0.001794|
|         949|   -3.274191|    0.156513|   -0.001778|
|         950|   -3.275647|    0.156510|   -0.001761|
|         951|   -3.277101|    0.156507|   -0.001744|
|         952|   -3.278553|    0.156504|   -0.001727|
|         953|   -3.280002|    0.156501|   -0.001711|
|         954|   -3.281448|    0.156498|   -0.001694|
|         955|   -3.282892|    0.156494|   -0.001677|
|         956|   -3.284333|    0.156491|   -0.001661|
|         957|   -3.285770|    0.156488|   -0.001644|
|         958|   -3.287204|    0.156485|   -0.001627|
|         959|   -3.288634|    0.156482|   -0.001611|
|         960|   -3.290061|    0.156479|   -0.001594|
|         961|   -3.291484|    0.156475|   -0.001578|
|         962|   -3.292903|    0.156472|   -0.001561|
|         963|   -3.294318|    0.156469|   -0.001545|
|         964|   -3.295728|    0.156466|   -0.001529|
|         965|   -3.297135|    0.156464|   -0.001512|
|         966|   -3.298537|    0.156461|   -0.001496|
|         967|   -3.299934|    0.156458|   -0.001480|
|         968|   -3.301327|    0.156455|   -0.001464|
|         969|   -3.302714|    0.156453|   -0.001448|
|         970|   -3.304097|    0.156450|   -0.001432|
|         971|   -3.305476|    0.156448|   -0.001416|
|         972|   -3.306849|    0.156445|   -0.001400|
|         973|   -3.308217|    0.156443|   -0.001384|
|         974|   -3.309580|    0.156441|   -0.001368|
|         975|   -3.310938|    0.156439|   -0.001353|
|         976|   -3.312290|    0.156438|   -0.001337|
|         977|   -3.313638|    0.156436|   -0.001322|
|         978|   -3.314980|    0.156434|   -0.001307|
|         979|   -3.316317|    0.156433|   -0.001291|
|         980|   -3.317649|    0.156432|   -0.001276|
|         981|   -3.318974|    0.156431|   -0.001261|
|         982|   -3.320295|    0.156430|   -0.001246|
|         983|   -3.321609|    0.156430|   -0.001232|
|         984|   -3.322918|    0.156429|   -0.001217|
|         985|   -3.324222|    0.156429|   -0.001203|
|         986|   -3.325519|    0.156429|   -0.001188|
|         987|   -3.326812|    0.156429|   -0.001174|
|         988|   -3.328099|    0.156430|   -0.001160|
|         989|   -3.329380|    0.156430|   -0.001146|
|         990|   -3.330656|    0.156431|   -0.001132|
|         991|   -3.331926|    0.156432|   -0.001118|
|         992|   -3.333191|    0.156434|   -0.001105|
|         993|   -3.334451|    0.156435|   -0.001091|
|         994|   -3.335705|    0.156437|   -0.001078|
|         995|   -3.336954|    0.156439|   -0.001065|
|         996|   -3.338198|    0.156441|   -0.001052|
|         997|   -3.339436|    0.156444|   -0.001039|
|         998|   -3.340668|    0.156447|   -0.001027|
|         999|   -3.341895|    0.156450|   -0.001014|
|        1000|   -3.343117|    0.156453|   -0.001002|
+-----------------------------------------------------------------------+
|        File Writing Summary       |              Filename             |
+-----------------------------------------------------------------------+
|SU2 binary restart                 |restart_flow.dat                   |
|CSV file                           |surface_flow.csv                   |
+-----------------------------------------------------------------------+
+---------------------------------------------------+
|  Inner_Iter|    rms[Rho]|          CL|          CD|
+---------------------------------------------------+
|        1001|   -3.344333|    0.156457|   -0.000990|
|        1002|   -3.345544|    0.156460|   -0.000978|
|        1003|   -3.346749|    0.156465|   -0.000966|
|        1004|   -3.347949|    0.156469|   -0.000955|
|        1005|   -3.349143|    0.156474|   -0.000943|
|        1006|   -3.350333|    0.156478|   -0.000932|
|        1007|   -3.351516|    0.156484|   -0.000921|
|        1008|   -3.352694|    0.156489|   -0.000910|
|        1009|   -3.353867|    0.156495|   -0.000900|
|        1010|   -3.355035|    0.156501|   -0.000889|
|        1011|   -3.356197|    0.156507|   -0.000879|
|        1012|   -3.357354|    0.156513|   -0.000869|
|        1013|   -3.358506|    0.156520|   -0.000859|
|        1014|   -3.359653|    0.156527|   -0.000849|
|        1015|   -3.360794|    0.156535|   -0.000840|
|        1016|   -3.361930|    0.156542|   -0.000830|
|        1017|   -3.363061|    0.156550|   -0.000821|
|        1018|   -3.364187|    0.156558|   -0.000812|
|        1019|   -3.365308|    0.156566|   -0.000804|
|        1020|   -3.366424|    0.156575|   -0.000795|
|        1021|   -3.367534|    0.156584|   -0.000787|
|        1022|   -3.368639|    0.156593|   -0.000779|
|        1023|   -3.369740|    0.156602|   -0.000771|
|        1024|   -3.370835|    0.156612|   -0.000763|
|        1025|   -3.371924|    0.156621|   -0.000755|
|        1026|   -3.373009|    0.156631|   -0.000748|
|        1027|   -3.374088|    0.156641|   -0.000741|
|        1028|   -3.375163|    0.156652|   -0.000734|
|        1029|   -3.376232|    0.156662|   -0.000727|
|        1030|   -3.377295|    0.156673|   -0.000721|
|        1031|   -3.378353|    0.156684|   -0.000715|
|        1032|   -3.379406|    0.156695|   -0.000708|
|        1033|   -3.380454|    0.156707|   -0.000703|
|        1034|   -3.381496|    0.156718|   -0.000697|
|        1035|   -3.382533|    0.156730|   -0.000691|
|        1036|   -3.383565|    0.156742|   -0.000686|
|        1037|   -3.384592|    0.156754|   -0.000681|
|        1038|   -3.385614|    0.156766|   -0.000676|
|        1039|   -3.386631|    0.156778|   -0.000671|
|        1040|   -3.387643|    0.156791|   -0.000667|
|        1041|   -3.388649|    0.156803|   -0.000662|
|        1042|   -3.389651|    0.156816|   -0.000658|
|        1043|   -3.390647|    0.156829|   -0.000654|
|        1044|   -3.391638|    0.156842|   -0.000650|
|        1045|   -3.392624|    0.156855|   -0.000647|
|        1046|   -3.393605|    0.156868|   -0.000643|
|        1047|   -3.394580|    0.156881|   -0.000640|
|        1048|   -3.395551|    0.156894|   -0.000637|
|        1049|   -3.396517|    0.156907|   -0.000634|
|        1050|   -3.397477|    0.156921|   -0.000632|
|        1051|   -3.398433|    0.156934|   -0.000629|
|        1052|   -3.399382|    0.156947|   -0.000627|
|        1053|   -3.400327|    0.156961|   -0.000625|
|        1054|   -3.401266|    0.156974|   -0.000623|
|        1055|   -3.402200|    0.156988|   -0.000621|
|        1056|   -3.403129|    0.157001|   -0.000619|
|        1057|   -3.404053|    0.157014|   -0.000617|
|        1058|   -3.404972|    0.157028|   -0.000616|
|        1059|   -3.405885|    0.157041|   -0.000615|
|        1060|   -3.406794|    0.157054|   -0.000614|
|        1061|   -3.407697|    0.157068|   -0.000613|
|        1062|   -3.408596|    0.157081|   -0.000612|
|        1063|   -3.409489|    0.157094|   -0.000611|
|        1064|   -3.410377|    0.157107|   -0.000611|
|        1065|   -3.411260|    0.157120|   -0.000610|
|        1066|   -3.412138|    0.157132|   -0.000610|
|        1067|   -3.413011|    0.157145|   -0.000610|
|        1068|   -3.413878|    0.157158|   -0.000610|
|        1069|   -3.414740|    0.157170|   -0.000610|
|        1070|   -3.415597|    0.157182|   -0.000610|
|        1071|   -3.416449|    0.157194|   -0.000611|
|        1072|   -3.417295|    0.157206|   -0.000611|
|        1073|   -3.418137|    0.157218|   -0.000611|
|        1074|   -3.418972|    0.157230|   -0.000612|
|        1075|   -3.419803|    0.157241|   -0.000613|
|        1076|   -3.420628|    0.157252|   -0.000614|
|        1077|   -3.421449|    0.157263|   -0.000614|
|        1078|   -3.422264|    0.157274|   -0.000615|
|        1079|   -3.423074|    0.157284|   -0.000616|
|        1080|   -3.423879|    0.157295|   -0.000618|
|        1081|   -3.424679|    0.157305|   -0.000619|
|        1082|   -3.425474|    0.157314|   -0.000620|
|        1083|   -3.426264|    0.157324|   -0.000621|
|        1084|   -3.427049|    0.157333|   -0.000623|
|        1085|   -3.427829|    0.157342|   -0.000624|
|        1086|   -3.428605|    0.157351|   -0.000626|
|        1087|   -3.429375|    0.157359|   -0.000627|
|        1088|   -3.430140|    0.157367|   -0.000629|
|        1089|   -3.430901|    0.157375|   -0.000630|
|        1090|   -3.431656|    0.157382|   -0.000632|
|        1091|   -3.432407|    0.157389|   -0.000633|
|        1092|   -3.433153|    0.157396|   -0.000635|
|        1093|   -3.433894|    0.157403|   -0.000637|
|        1094|   -3.434630|    0.157409|   -0.000638|
|        1095|   -3.435361|    0.157414|   -0.000640|
|        1096|   -3.436088|    0.157420|   -0.000642|
|        1097|   -3.436810|    0.157425|   -0.000644|
|        1098|   -3.437527|    0.157429|   -0.000645|
|        1099|   -3.438240|    0.157433|   -0.000647|
|        1100|   -3.438947|    0.157437|   -0.000649|
|        1101|   -3.439651|    0.157440|   -0.000650|
|        1102|   -3.440349|    0.157444|   -0.000652|
|        1103|   -3.441043|    0.157446|   -0.000654|
|        1104|   -3.441732|    0.157448|   -0.000655|
|        1105|   -3.442416|    0.157450|   -0.000657|
|        1106|   -3.443096|    0.157451|   -0.000658|
|        1107|   -3.443771|    0.157452|   -0.000660|
|        1108|   -3.444441|    0.157453|   -0.000661|
|        1109|   -3.445107|    0.157453|   -0.000662|
|        1110|   -3.445769|    0.157453|   -0.000664|
|        1111|   -3.446426|    0.157452|   -0.000665|
|        1112|   -3.447078|    0.157451|   -0.000666|
|        1113|   -3.447727|    0.157449|   -0.000667|
|        1114|   -3.448371|    0.157447|   -0.000669|
|        1115|   -3.449010|    0.157445|   -0.000670|
|        1116|   -3.449645|    0.157442|   -0.000671|
|        1117|   -3.450275|    0.157438|   -0.000671|
|        1118|   -3.450901|    0.157435|   -0.000672|
|        1119|   -3.451522|    0.157430|   -0.000673|
|        1120|   -3.452140|    0.157426|   -0.000673|
|        1121|   -3.452753|    0.157421|   -0.000674|
|        1122|   -3.453361|    0.157415|   -0.000674|
|        1123|   -3.453966|    0.157409|   -0.000675|
|        1124|   -3.454567|    0.157403|   -0.000675|
|        1125|   -3.455164|    0.157396|   -0.000675|
|        1126|   -3.455756|    0.157388|   -0.000675|
|        1127|   -3.456344|    0.157381|   -0.000675|
|        1128|   -3.456928|    0.157372|   -0.000675|
|        1129|   -3.457509|    0.157364|   -0.000674|
|        1130|   -3.458085|    0.157355|   -0.000674|
|        1131|   -3.458658|    0.157345|   -0.000673|
|        1132|   -3.459226|    0.157335|   -0.000673|
|        1133|   -3.459791|    0.157325|   -0.000672|
|        1134|   -3.460352|    0.157314|   -0.000671|
|        1135|   -3.460909|    0.157303|   -0.000670|
|        1136|   -3.461463|    0.157291|   -0.000669|
|        1137|   -3.462012|    0.157279|   -0.000668|
|        1138|   -3.462558|    0.157267|   -0.000666|
|        1139|   -3.463100|    0.157254|   -0.000665|
|        1140|   -3.463639|    0.157241|   -0.000663|
|        1141|   -3.464174|    0.157227|   -0.000661|
|        1142|   -3.464705|    0.157213|   -0.000659|
|        1143|   -3.465232|    0.157198|   -0.000657|
|        1144|   -3.465755|    0.157183|   -0.000655|
|        1145|   -3.466275|    0.157168|   -0.000652|
|        1146|   -3.466790|    0.157152|   -0.000650|
|        1147|   -3.467302|    0.157136|   -0.000647|
|        1148|   -3.467811|    0.157120|   -0.000644|
|        1149|   -3.468316|    0.157103|   -0.000641|
|        1150|   -3.468817|    0.157086|   -0.000638|
|        1151|   -3.469315|    0.157068|   -0.000635|
|        1152|   -3.469810|    0.157050|   -0.000631|
|        1153|   -3.470301|    0.157032|   -0.000628|
|        1154|   -3.470789|    0.157014|   -0.000624|
|        1155|   -3.471273|    0.156995|   -0.000620|
|        1156|   -3.471754|    0.156975|   -0.000616|
|        1157|   -3.472232|    0.156956|   -0.000612|
|        1158|   -3.472706|    0.156936|   -0.000608|
|        1159|   -3.473178|    0.156915|   -0.000603|
|        1160|   -3.473646|    0.156895|   -0.000599|
|        1161|   -3.474111|    0.156874|   -0.000594|
|        1162|   -3.474573|    0.156853|   -0.000589|
|        1163|   -3.475033|    0.156831|   -0.000584|
|        1164|   -3.475489|    0.156810|   -0.000579|
|        1165|   -3.475943|    0.156788|   -0.000573|
|        1166|   -3.476393|    0.156765|   -0.000568|
|        1167|   -3.476841|    0.156743|   -0.000562|
|        1168|   -3.477286|    0.156720|   -0.000556|
|        1169|   -3.477729|    0.156697|   -0.000551|
|        1170|   -3.478169|    0.156674|   -0.000545|
|        1171|   -3.478606|    0.156650|   -0.000538|
|        1172|   -3.479040|    0.156626|   -0.000532|
|        1173|   -3.479472|    0.156603|   -0.000526|
|        1174|   -3.479902|    0.156578|   -0.000519|
|        1175|   -3.480328|    0.156554|   -0.000512|
|        1176|   -3.480752|    0.156529|   -0.000505|
|        1177|   -3.481174|    0.156505|   -0.000498|
|        1178|   -3.481593|    0.156480|   -0.000491|
|        1179|   -3.482010|    0.156454|   -0.000484|
|        1180|   -3.482425|    0.156429|   -0.000476|
|        1181|   -3.482838|    0.156404|   -0.000469|
|        1182|   -3.483248|    0.156378|   -0.000461|
|        1183|   -3.483656|    0.156352|   -0.000454|
|        1184|   -3.484063|    0.156326|   -0.000446|
|        1185|   -3.484468|    0.156300|   -0.000438|
|        1186|   -3.484870|    0.156274|   -0.000430|
|        1187|   -3.485271|    0.156247|   -0.000421|
|        1188|   -3.485670|    0.156221|   -0.000413|
|        1189|   -3.486067|    0.156194|   -0.000405|
|        1190|   -3.486463|    0.156167|   -0.000396|
|        1191|   -3.486857|    0.156141|   -0.000387|
|        1192|   -3.487250|    0.156114|   -0.000379|
|        1193|   -3.487641|    0.156087|   -0.000370|
|        1194|   -3.488031|    0.156060|   -0.000361|
|        1195|   -3.488419|    0.156032|   -0.000352|
|        1196|   -3.488805|    0.156005|   -0.000342|
|        1197|   -3.489190|    0.155978|   -0.000333|
|        1198|   -3.489574|    0.155950|   -0.000324|
|        1199|   -3.489957|    0.155923|   -0.000314|
|        1200|   -3.490338|    0.155896|   -0.000305|
|        1201|   -3.490719|    0.155868|   -0.000295|
|        1202|   -3.491099|    0.155841|   -0.000286|
|        1203|   -3.491477|    0.155813|   -0.000276|
|        1204|   -3.491855|    0.155785|   -0.000266|
|        1205|   -3.492233|    0.155758|   -0.000256|
|        1206|   -3.492610|    0.155730|   -0.000246|
|        1207|   -3.492986|    0.155702|   -0.000236|
|        1208|   -3.493362|    0.155675|   -0.000226|
|        1209|   -3.493737|    0.155647|   -0.000216|
|        1210|   -3.494112|    0.155619|   -0.000206|
|        1211|   -3.494488|    0.155592|   -0.000195|
|        1212|   -3.494862|    0.155564|   -0.000185|
|        1213|   -3.495237|    0.155536|   -0.000175|
|        1214|   -3.495612|    0.155509|   -0.000164|
|        1215|   -3.495987|    0.155481|   -0.000154|
|        1216|   -3.496362|    0.155453|   -0.000143|
|        1217|   -3.496737|    0.155426|   -0.000133|
|        1218|   -3.497112|    0.155398|   -0.000122|
|        1219|   -3.497489|    0.155371|   -0.000111|
|        1220|   -3.497865|    0.155343|   -0.000101|
|        1221|   -3.498243|    0.155316|   -0.000090|
|        1222|   -3.498621|    0.155288|   -0.000079|
|        1223|   -3.499001|    0.155261|   -0.000068|
|        1224|   -3.499381|    0.155234|   -0.000058|
|        1225|   -3.499763|    0.155207|   -0.000047|
|        1226|   -3.500146|    0.155179|   -0.000036|
|        1227|   -3.500531|    0.155152|   -0.000025|
|        1228|   -3.500918|    0.155125|   -0.000014|
|        1229|   -3.501306|    0.155099|   -0.000003|
|        1230|   -3.501696|    0.155072|    0.000008|
|        1231|   -3.502089|    0.155045|    0.000019|
|        1232|   -3.502483|    0.155018|    0.000030|
|        1233|   -3.502880|    0.154992|    0.000040|
|        1234|   -3.503279|    0.154965|    0.000051|
|        1235|   -3.503680|    0.154939|    0.000062|
|        1236|   -3.504084|    0.154912|    0.000073|
|        1237|   -3.504491|    0.154886|    0.000084|
[...]
|        2118|   -3.969936|    0.156158|    0.000186|
|        2119|   -3.970463|    0.156164|    0.000186|
|        2120|   -3.970990|    0.156170|    0.000187|
|        2121|   -3.971519|    0.156176|    0.000187|
|        2122|   -3.972049|    0.156182|    0.000188|
|        2123|   -3.972579|    0.156187|    0.000188|
|        2124|   -3.973111|    0.156193|    0.000189|
|        2125|   -3.973643|    0.156199|    0.000189|
|        2126|   -3.974177|    0.156204|    0.000190|
|        2127|   -3.974712|    0.156210|    0.000190|
|        2128|   -3.975248|    0.156215|    0.000191|
|        2129|   -3.975785|    0.156221|    0.000191|
|        2130|   -3.976323|    0.156226|    0.000192|
|        2131|   -3.976863|    0.156231|    0.000192|
|        2132|   -3.977403|    0.156237|    0.000193|
|        2133|   -3.977946|    0.156242|    0.000193|
|        2134|   -3.978489|    0.156247|    0.000194|
|        2135|   -3.979034|    0.156252|    0.000195|
|        2136|   -3.979580|    0.156257|    0.000195|
|        2137|   -3.980127|    0.156262|    0.000196|
|        2138|   -3.980675|    0.156267|    0.000196|
|        2139|   -3.981224|    0.156272|    0.000197|
|        2140|   -3.981775|    0.156276|    0.000198|
|        2141|   -3.982326|    0.156281|    0.000198|
|        2142|   -3.982879|    0.156286|    0.000199|
|        2143|   -3.983432|    0.156290|    0.000199|
|        2144|   -3.983987|    0.156295|    0.000200|
|        2145|   -3.984542|    0.156299|    0.000201|
|        2146|   -3.985099|    0.156304|    0.000201|
|        2147|   -3.985656|    0.156308|    0.000202|
|        2148|   -3.986215|    0.156312|    0.000203|
|        2149|   -3.986775|    0.156316|    0.000203|
|        2150|   -3.987335|    0.156321|    0.000204|
|        2151|   -3.987897|    0.156325|    0.000205|
|        2152|   -3.988459|    0.156329|    0.000206|
|        2153|   -3.989022|    0.156332|    0.000206|
|        2154|   -3.989586|    0.156336|    0.000207|
|        2155|   -3.990151|    0.156340|    0.000208|
|        2156|   -3.990717|    0.156344|    0.000208|
|        2157|   -3.991284|    0.156347|    0.000209|
|        2158|   -3.991852|    0.156351|    0.000210|
|        2159|   -3.992421|    0.156354|    0.000211|
|        2160|   -3.992990|    0.156357|    0.000211|
|        2161|   -3.993561|    0.156361|    0.000212|
|        2162|   -3.994133|    0.156364|    0.000213|
|        2163|   -3.994706|    0.156367|    0.000214|
|        2164|   -3.995279|    0.156370|    0.000215|
|        2165|   -3.995853|    0.156373|    0.000215|
|        2166|   -3.996428|    0.156376|    0.000216|
|        2167|   -3.997004|    0.156379|    0.000217|
|        2168|   -3.997580|    0.156381|    0.000218|
|        2169|   -3.998157|    0.156384|    0.000219|
|        2170|   -3.998735|    0.156387|    0.000220|
|        2171|   -3.999314|    0.156389|    0.000220|
|        2172|   -3.999893|    0.156391|    0.000221|
|        2173|   -4.000473|    0.156394|    0.000222|
|        2174|   -4.001054|    0.156396|    0.000223|
|        2175|   -4.001635|    0.156398|    0.000224|
|        2176|   -4.002217|    0.156400|    0.000225|
|        2177|   -4.002800|    0.156402|    0.000226|
|        2178|   -4.003384|    0.156404|    0.000227|
|        2179|   -4.003968|    0.156406|    0.000228|
|        2180|   -4.004554|    0.156407|    0.000228|
|        2181|   -4.005140|    0.156409|    0.000229|
|        2182|   -4.005726|    0.156410|    0.000230|
|        2183|   -4.006314|    0.156412|    0.000231|
|        2184|   -4.006903|    0.156413|    0.000232|
|        2185|   -4.007492|    0.156414|    0.000233|
|        2186|   -4.008082|    0.156415|    0.000234|
|        2187|   -4.008672|    0.156416|    0.000235|
|        2188|   -4.009263|    0.156417|    0.000236|
|        2189|   -4.009855|    0.156418|    0.000237|
|        2190|   -4.010448|    0.156419|    0.000238|
|        2191|   -4.011041|    0.156419|    0.000239|
|        2192|   -4.011634|    0.156420|    0.000240|
|        2193|   -4.012228|    0.156420|    0.000241|
|        2194|   -4.012822|    0.156421|    0.000242|
|        2195|   -4.013417|    0.156421|    0.000243|
|        2196|   -4.014012|    0.156421|    0.000244|
|        2197|   -4.014608|    0.156421|    0.000245|
|        2198|   -4.015204|    0.156421|    0.000246|
|        2199|   -4.015800|    0.156421|    0.000247|
|        2200|   -4.016396|    0.156420|    0.000248|
|        2201|   -4.016993|    0.156420|    0.000249|
|        2202|   -4.017590|    0.156419|    0.000250|
|        2203|   -4.018188|    0.156419|    0.000251|
|        2204|   -4.018785|    0.156418|    0.000252|
|        2205|   -4.019384|    0.156417|    0.000253|
|        2206|   -4.019982|    0.156416|    0.000254|
|        2207|   -4.020581|    0.156415|    0.000255|
|        2208|   -4.021180|    0.156414|    0.000256|
|        2209|   -4.021780|    0.156413|    0.000257|
|        2210|   -4.022380|    0.156412|    0.000258|
|        2211|   -4.022980|    0.156410|    0.000259|
|        2212|   -4.023580|    0.156409|    0.000260|
|        2213|   -4.024181|    0.156407|    0.000261|
|        2214|   -4.024782|    0.156405|    0.000262|
|        2215|   -4.025384|    0.156403|    0.000263|
|        2216|   -4.025985|    0.156401|    0.000265|
|        2217|   -4.026587|    0.156399|    0.000266|
|        2218|   -4.027189|    0.156397|    0.000267|
|        2219|   -4.027791|    0.156395|    0.000268|
|        2220|   -4.028393|    0.156392|    0.000269|
|        2221|   -4.028995|    0.156390|    0.000270|
|        2222|   -4.029597|    0.156387|    0.000271|
|        2223|   -4.030199|    0.156384|    0.000272|
|        2224|   -4.030802|    0.156381|    0.000273|
|        2225|   -4.031404|    0.156378|    0.000274|
|        2226|   -4.032007|    0.156375|    0.000275|
|        2227|   -4.032610|    0.156372|    0.000276|
|        2228|   -4.033212|    0.156369|    0.000278|
|        2229|   -4.033815|    0.156365|    0.000279|
|        2230|   -4.034418|    0.156362|    0.000280|
|        2231|   -4.035020|    0.156358|    0.000281|
|        2232|   -4.035622|    0.156354|    0.000282|
|        2233|   -4.036225|    0.156350|    0.000283|
|        2234|   -4.036828|    0.156346|    0.000284|
|        2235|   -4.037431|    0.156342|    0.000285|
|        2236|   -4.038033|    0.156338|    0.000286|
|        2237|   -4.038636|    0.156334|    0.000288|
|        2238|   -4.039238|    0.156329|    0.000289|
|        2239|   -4.039839|    0.156325|    0.000290|
|        2240|   -4.040441|    0.156320|    0.000291|
|        2241|   -4.041042|    0.156315|    0.000292|
|        2242|   -4.041643|    0.156310|    0.000293|
|        2243|   -4.042244|    0.156305|    0.000294|
|        2244|   -4.042844|    0.156300|    0.000295|
|        2245|   -4.043443|    0.156295|    0.000296|
|        2246|   -4.044043|    0.156289|    0.000297|
|        2247|   -4.044642|    0.156284|    0.000299|
|        2248|   -4.045240|    0.156278|    0.000300|
|        2249|   -4.045838|    0.156273|    0.000301|
|        2250|   -4.046436|    0.156267|    0.000302|
+-----------------------------------------------------------------------+
|        File Writing Summary       |              Filename             |
+-----------------------------------------------------------------------+
|SU2 binary restart                 |restart_flow.dat                   |
|CSV file                           |surface_flow.csv                   |
+-----------------------------------------------------------------------+
+---------------------------------------------------+
|  Inner_Iter|    rms[Rho]|          CL|          CD|
+---------------------------------------------------+
|        2251|   -4.047034|    0.156261|    0.000303|
|        2252|   -4.047631|    0.156255|    0.000304|
|        2253|   -4.048228|    0.156248|    0.000305|
|        2254|   -4.048824|    0.156242|    0.000306|
|        2255|   -4.049420|    0.156236|    0.000307|
|        2256|   -4.050016|    0.156229|    0.000308|
|        2257|   -4.050611|    0.156222|    0.000309|
|        2258|   -4.051207|    0.156216|    0.000310|
|        2259|   -4.051801|    0.156209|    0.000312|
|        2260|   -4.052396|    0.156202|    0.000313|
|        2261|   -4.052991|    0.156195|    0.000314|
|        2262|   -4.053585|    0.156187|    0.000315|
|        2263|   -4.054179|    0.156180|    0.000316|
|        2264|   -4.054772|    0.156173|    0.000317|
|        2265|   -4.055365|    0.156165|    0.000318|
|        2266|   -4.055957|    0.156157|    0.000319|
|        2267|   -4.056549|    0.156150|    0.000320|
|        2268|   -4.057139|    0.156142|    0.000321|
|        2269|   -4.057729|    0.156134|    0.000322|
|        2270|   -4.058318|    0.156125|    0.000323|
|        2271|   -4.058907|    0.156117|    0.000324|
|        2272|   -4.059495|    0.156109|    0.000325|
|        2273|   -4.060083|    0.156100|    0.000326|
|        2274|   -4.060671|    0.156092|    0.000327|
|        2275|   -4.061258|    0.156083|    0.000328|
|        2276|   -4.061844|    0.156074|    0.000329|
|        2277|   -4.062430|    0.156065|    0.000330|
|        2278|   -4.063014|    0.156056|    0.000331|
|        2279|   -4.063599|    0.156047|    0.000332|
|        2280|   -4.064183|    0.156038|    0.000333|
|        2281|   -4.064766|    0.156028|    0.000334|
|        2282|   -4.065350|    0.156019|    0.000335|
|        2283|   -4.065933|    0.156009|    0.000336|
|        2284|   -4.066516|    0.155999|    0.000337|
|        2285|   -4.067099|    0.155990|    0.000338|
|        2286|   -4.067681|    0.155980|    0.000339|
|        2287|   -4.068264|    0.155970|    0.000340|
|        2288|   -4.068846|    0.155960|    0.000341|
|        2289|   -4.069428|    0.155949|    0.000342|
|        2290|   -4.070010|    0.155939|    0.000343|
|        2291|   -4.070591|    0.155928|    0.000343|
|        2292|   -4.071172|    0.155918|    0.000344|
|        2293|   -4.071753|    0.155907|    0.000345|
|        2294|   -4.072334|    0.155896|    0.000346|
|        2295|   -4.072914|    0.155885|    0.000347|
|        2296|   -4.073494|    0.155874|    0.000348|
|        2297|   -4.074073|    0.155863|    0.000349|
|        2298|   -4.074652|    0.155852|    0.000350|
|        2299|   -4.075231|    0.155841|    0.000350|
|        2300|   -4.075809|    0.155829|    0.000351|
|        2301|   -4.076387|    0.155818|    0.000352|
|        2302|   -4.076965|    0.155806|    0.000353|
|        2303|   -4.077542|    0.155795|    0.000354|
|        2304|   -4.078118|    0.155783|    0.000355|
|        2305|   -4.078695|    0.155771|    0.000355|
|        2306|   -4.079270|    0.155759|    0.000356|
|        2307|   -4.079846|    0.155747|    0.000357|
|        2308|   -4.080421|    0.155735|    0.000358|
|        2309|   -4.080996|    0.155722|    0.000358|
|        2310|   -4.081571|    0.155710|    0.000359|
|        2311|   -4.082145|    0.155697|    0.000360|
|        2312|   -4.082719|    0.155685|    0.000361|
|        2313|   -4.083293|    0.155672|    0.000361|
|        2314|   -4.083867|    0.155659|    0.000362|
|        2315|   -4.084441|    0.155646|    0.000363|
|        2316|   -4.085015|    0.155633|    0.000363|
|        2317|   -4.085588|    0.155620|    0.000364|
|        2318|   -4.086162|    0.155607|    0.000365|
|        2319|   -4.086735|    0.155594|    0.000365|
|        2320|   -4.087308|    0.155581|    0.000366|
|        2321|   -4.087882|    0.155567|    0.000367|
|        2322|   -4.088455|    0.155554|    0.000367|
|        2323|   -4.089028|    0.155540|    0.000368|
|        2324|   -4.089601|    0.155526|    0.000368|
|        2325|   -4.090174|    0.155513|    0.000369|
|        2326|   -4.090747|    0.155499|    0.000370|
|        2327|   -4.091320|    0.155485|    0.000370|
|        2328|   -4.091893|    0.155471|    0.000371|
|        2329|   -4.092465|    0.155457|    0.000371|
|        2330|   -4.093038|    0.155443|    0.000372|
|        2331|   -4.093610|    0.155428|    0.000372|
|        2332|   -4.094182|    0.155414|    0.000373|
|        2333|   -4.094754|    0.155400|    0.000373|
|        2334|   -4.095327|    0.155385|    0.000374|
|        2335|   -4.095899|    0.155370|    0.000374|
|        2336|   -4.096471|    0.155356|    0.000375|
|        2337|   -4.097043|    0.155341|    0.000375|
|        2338|   -4.097615|    0.155326|    0.000376|
|        2339|   -4.098187|    0.155311|    0.000376|
|        2340|   -4.098759|    0.155296|    0.000376|
|        2341|   -4.099331|    0.155281|    0.000377|
|        2342|   -4.099903|    0.155266|    0.000377|
|        2343|   -4.100475|    0.155251|    0.000378|
|        2344|   -4.101047|    0.155236|    0.000378|
|        2345|   -4.101619|    0.155221|    0.000378|
|        2346|   -4.102192|    0.155205|    0.000379|
|        2347|   -4.102764|    0.155190|    0.000379|
|        2348|   -4.103336|    0.155175|    0.000379|
|        2349|   -4.103908|    0.155159|    0.000379|
|        2350|   -4.104481|    0.155143|    0.000380|
|        2351|   -4.105053|    0.155128|    0.000380|
|        2352|   -4.105626|    0.155112|    0.000380|
|        2353|   -4.106198|    0.155096|    0.000381|
|        2354|   -4.106770|    0.155080|    0.000381|
|        2355|   -4.107342|    0.155064|    0.000381|
|        2356|   -4.107914|    0.155049|    0.000381|
|        2357|   -4.108485|    0.155033|    0.000381|
|        2358|   -4.109057|    0.155016|    0.000381|
|        2359|   -4.109628|    0.155000|    0.000382|
|        2360|   -4.110200|    0.154984|    0.000382|
|        2361|   -4.110772|    0.154968|    0.000382|
|        2362|   -4.111344|    0.154952|    0.000382|
|        2363|   -4.111916|    0.154935|    0.000382|
|        2364|   -4.112488|    0.154919|    0.000382|
|        2365|   -4.113061|    0.154903|    0.000382|
|        2366|   -4.113634|    0.154886|    0.000382|
|        2367|   -4.114207|    0.154870|    0.000382|
|        2368|   -4.114780|    0.154853|    0.000382|
|        2369|   -4.115354|    0.154837|    0.000382|
|        2370|   -4.115928|    0.154820|    0.000382|
|        2371|   -4.116502|    0.154803|    0.000382|
|        2372|   -4.117076|    0.154787|    0.000382|
|        2373|   -4.117650|    0.154770|    0.000382|
|        2374|   -4.118225|    0.154753|    0.000382|
|        2375|   -4.118799|    0.154736|    0.000382|
|        2376|   -4.119374|    0.154719|    0.000382|
|        2377|   -4.119948|    0.154702|    0.000382|
|        2378|   -4.120523|    0.154686|    0.000382|
|        2379|   -4.121097|    0.154669|    0.000382|
|        2380|   -4.121672|    0.154652|    0.000382|
|        2381|   -4.122247|    0.154635|    0.000381|
|        2382|   -4.122822|    0.154618|    0.000381|
|        2383|   -4.123397|    0.154601|    0.000381|
|        2384|   -4.123972|    0.154583|    0.000381|
|        2385|   -4.124547|    0.154566|    0.000381|
|        2386|   -4.125122|    0.154549|    0.000380|
|        2387|   -4.125698|    0.154532|    0.000380|
|        2388|   -4.126273|    0.154515|    0.000380|
|        2389|   -4.126849|    0.154498|    0.000380|
|        2390|   -4.127425|    0.154481|    0.000379|
|        2391|   -4.128001|    0.154463|    0.000379|
|        2392|   -4.128578|    0.154446|    0.000379|
|        2393|   -4.129155|    0.154429|    0.000378|
|        2394|   -4.129732|    0.154412|    0.000378|
|        2395|   -4.130309|    0.154394|    0.000378|
|        2396|   -4.130887|    0.154377|    0.000377|
|        2397|   -4.131465|    0.154360|    0.000377|
|        2398|   -4.132044|    0.154342|    0.000376|
|        2399|   -4.132622|    0.154325|    0.000376|
|        2400|   -4.133201|    0.154308|    0.000376|
|        2401|   -4.133781|    0.154290|    0.000375|
|        2402|   -4.134360|    0.154273|    0.000375|
|        2403|   -4.134940|    0.154256|    0.000374|
|        2404|   -4.135520|    0.154238|    0.000374|
|        2405|   -4.136100|    0.154221|    0.000373|
|        2406|   -4.136681|    0.154204|    0.000373|
|        2407|   -4.137262|    0.154186|    0.000372|
|        2408|   -4.137843|    0.154169|    0.000372|
|        2409|   -4.138424|    0.154152|    0.000371|
|        2410|   -4.139005|    0.154135|    0.000370|
|        2411|   -4.139587|    0.154117|    0.000370|
|        2412|   -4.140168|    0.154100|    0.000369|
|        2413|   -4.140750|    0.154083|    0.000369|
|        2414|   -4.141333|    0.154065|    0.000368|
|        2415|   -4.141915|    0.154048|    0.000367|
|        2416|   -4.142497|    0.154031|    0.000367|
|        2417|   -4.143079|    0.154014|    0.000366|
|        2418|   -4.143662|    0.153996|    0.000365|
|        2419|   -4.144244|    0.153979|    0.000365|
|        2420|   -4.144828|    0.153962|    0.000364|
|        2421|   -4.145411|    0.153945|    0.000363|
|        2422|   -4.145994|    0.153927|    0.000363|
|        2423|   -4.146578|    0.153910|    0.000362|
|        2424|   -4.147161|    0.153893|    0.000361|
|        2425|   -4.147745|    0.153876|    0.000360|
|        2426|   -4.148329|    0.153859|    0.000360|
|        2427|   -4.148912|    0.153842|    0.000359|
|        2428|   -4.149496|    0.153825|    0.000358|
|        2429|   -4.150080|    0.153808|    0.000357|
|        2430|   -4.150663|    0.153791|    0.000356|
|        2431|   -4.151247|    0.153774|    0.000355|
|        2432|   -4.151831|    0.153757|    0.000355|
|        2433|   -4.152414|    0.153740|    0.000354|
|        2434|   -4.152998|    0.153723|    0.000353|
|        2435|   -4.153582|    0.153706|    0.000352|
|        2436|   -4.154165|    0.153690|    0.000351|
|        2437|   -4.154749|    0.153673|    0.000350|
|        2438|   -4.155332|    0.153656|    0.000349|
|        2439|   -4.155916|    0.153639|    0.000348|
|        2440|   -4.156499|    0.153623|    0.000347|
|        2441|   -4.157083|    0.153606|    0.000346|
|        2442|   -4.157666|    0.153589|    0.000345|
|        2443|   -4.158250|    0.153573|    0.000344|
|        2444|   -4.158833|    0.153556|    0.000344|
|        2445|   -4.159417|    0.153540|    0.000343|
|        2446|   -4.160000|    0.153523|    0.000342|
|        2447|   -4.160583|    0.153507|    0.000340|
|        2448|   -4.161166|    0.153491|    0.000339|
|        2449|   -4.161748|    0.153474|    0.000338|
|        2450|   -4.162331|    0.153458|    0.000337|
|        2451|   -4.162914|    0.153442|    0.000336|
|        2452|   -4.163496|    0.153426|    0.000335|
|        2453|   -4.164077|    0.153410|    0.000334|
|        2454|   -4.164659|    0.153393|    0.000333|
|        2455|   -4.165241|    0.153377|    0.000332|
|        2456|   -4.165822|    0.153361|    0.000331|
|        2457|   -4.166403|    0.153346|    0.000330|
|        2458|   -4.166983|    0.153330|    0.000329|
|        2459|   -4.167564|    0.153314|    0.000328|
|        2460|   -4.168144|    0.153298|    0.000326|
|        2461|   -4.168724|    0.153282|    0.000325|
|        2462|   -4.169304|    0.153267|    0.000324|
|        2463|   -4.169884|    0.153251|    0.000323|
|        2464|   -4.170463|    0.153236|    0.000322|
|        2465|   -4.171042|    0.153220|    0.000321|
|        2466|   -4.171621|    0.153205|    0.000319|
|        2467|   -4.172199|    0.153189|    0.000318|
|        2468|   -4.172777|    0.153174|    0.000317|
|        2469|   -4.173355|    0.153159|    0.000316|
|        2470|   -4.173932|    0.153144|    0.000315|
|        2471|   -4.174508|    0.153128|    0.000313|
|        2472|   -4.175084|    0.153113|    0.000312|
|        2473|   -4.175660|    0.153098|    0.000311|
|        2474|   -4.176235|    0.153084|    0.000310|
|        2475|   -4.176810|    0.153069|    0.000308|
|        2476|   -4.177384|    0.153054|    0.000307|
