
-------------------------------------------------------------------------
|    ___ _   _ ___                                                      |
|   / __| | | |_  )   Release 8.5.0 "Harrier"                           |
|   \__ \ |_| |/ /                                                      |
|   |___/\___//___|   Suite (Computational Fluid Dynamics Code)         |
|                                                                       |
-------------------------------------------------------------------------
| SU2 Project Website: https://su2code.github.io                        |
|                                                                       |
| The SU2 Project is maintained by the SU2 Foundation                   |
| (http://su2foundation.org)                                            |
-------------------------------------------------------------------------
| Copyright 2012-2026, SU2 Contributors                                 |
|                                                                       |
| SU2 is free software; you can redistribute it and/or                  |
| modify it under the terms of the GNU Lesser General Public            |
| License as published by the Free Software Foundation; either          |
| version 2.1 of the License, or (at your option) any later version.    |
|                                                                       |
| SU2 is distributed in the hope that it will be useful,                |
| but WITHOUT ANY WARRANTY; without even the implied warranty of        |
| MERCHANTABILITY or FITNESS FOR A PARTICULAR PURPOSE. See the GNU      |
| Lesser General Public License for more details.                       |
|                                                                       |
| You should have received a copy of the GNU Lesser General Public      |
| License along with SU2. If not, see <http://www.gnu.org/licenses/>.   |
-------------------------------------------------------------------------

Parsing config file for zone 0

----------------- Physical Case Definition ( Zone 0 ) -------------------
Compressible Euler equations.
Mach number: 0.85.
Angle of attack (AoA): 3 deg, and angle of sideslip (AoS): 0 deg.
No restart solution, use the values at infinity (freestream).
Dimensional simulation.
The reference area is 4.9725 m^2.
The semi-span will be computed using the max y(3D) value.
The reference length is 1.792 m.
Reference origin for moment evaluation is (0.896, 0, 0).
Surface(s) where the force coefficients are evaluated: wing.

Surface(s) plotted in the output file: wing.
Input mesh file name: mesh.su2

--------------- Space Numerical Integration ( Zone 0 ) ------------------
Jameson-Schmidt-Turkel scheme (2nd order in space) for the flow inviscid terms.
JST viscous coefficients (2nd & 4th): 0.5, 0.02.
The method includes a grid stretching correction (p = 0.3).
Gradient for upwind reconstruction: inverse-distance weighted Least-Squares.
Gradient for viscous and source terms: inverse-distance weighted Least-Squares.

--------------- Time Numerical Integration  ( Zone 0 ) ------------------
Local time stepping (steady state simulation).
Euler implicit method for the flow equations.
FGMRES is used for solving the linear system.
Using a ILU(0) preconditioning.
Convergence criteria of the linear solver: 1e-06.
Max number of linear iterations: 5.
No CFL adaptation.
Courant-Friedrichs-Lewy number:        2

------------------ Convergence Criteria  ( Zone 0 ) ---------------------
Maximum number of solver subiterations: 2500.
Begin convergence monitoring at iteration 10.
Residual minimum value: 1e-12.
Cauchy series min. value: 1e-10.
Number of Cauchy elements: 100.
Begin windowed time average at iteration 0.

-------------------- Output Information ( Zone 0 ) ----------------------
File writing frequency: 
+------------------------------------+
|                     File| Frequency|
+------------------------------------+
|                  RESTART|       250|
|              SURFACE_CSV|       250|
+------------------------------------+
Writing the convergence history file every 1 inner iterations.
Writing the screen convergence history every 1 inner iterations.
The tabular file format is CSV (.csv).
Convergence history file name: history.
Forces breakdown file name: forces_breakdown.dat.
Surface file name: surface_flow.
Volume file name: flow.
Restart file name: restart_flow.dat.

------------- Config File Boundary Information ( Zone 0 ) ---------------
+-----------------------------------------------------------------------+
|                        Marker Type|                        Marker Name|
+-----------------------------------------------------------------------+
|                         Euler wall|                               wing|
+-----------------------------------------------------------------------+
|                          Far-field|                           farfield|
+-----------------------------------------------------------------------+

-------------------- Output Preprocessing ( Zone 0 ) --------------------

WARNING: SURFACE_PRESSURE_DROP can only be computed for at least 2 surfaces (outlet, inlet, ...)

Screen output fields: INNER_ITER, RMS_DENSITY, LIFT, DRAG
History output group(s): ITER, RMS_RES
Convergence field(s): RMS_DENSITY
Warning: No (valid) fields chosen for time convergence monitoring. Time convergence monitoring inactive.
Volume output fields: COORDINATES, SOLUTION, PRIMITIVE

------------------- Geometry Preprocessing ( Zone 0 ) -------------------
Three dimensional problem.
139036 grid points before partitioning.
809718 volume elements before partitioning.
2 surface markers.
9152 boundary elements in index 0 (Marker = wing).
29498 boundary elements in index 1 (Marker = farfield).
Executing the partitioning functions.
Building the graph adjacency structure.
Calling ParMETIS... graph partitioning complete (34080 edge cuts).
Distributing ParMETIS coloring.
Rebalancing vertices.
Rebalancing volume element connectivity.
Rebalancing markers and surface elements.
157996 vertices including ghost points. 
861064 interior elements including halo cells. 
861064 tetrahedra.
Establishing MPI communication patterns.
Setting point connectivity.
Renumbering points (Reverse Cuthill McKee Ordering).
Recomputing point connectivity.
Setting element connectivity.
Checking the numerical grid orientation.
All volume elements are correctly oriented.
There has been a re-orientation of 30678 TRIANGLE surface elements.
Identifying edges and vertices.
Setting the control volume structure.
Volume of the computational grid: 26891.1.
Searching for the closest normal neighbors to the surfaces.
Storing a mapping from global to local point index.
Compute the surface curvature.
Max K: 1172.77. Mean K: 4.57822. Standard deviation K: 38.4762.
Computing mesh quality statistics for the dual control volumes.
+--------------------------------------------------------------+
|           Mesh Quality Metric|        Minimum|        Maximum|
+--------------------------------------------------------------+
|    Orthogonality Angle (deg.)|         52.457|        83.8523|
|     CV Face Area Aspect Ratio|         1.2357|         25.205|
|           CV Sub-Volume Ratio|              1|        289.177|
+--------------------------------------------------------------+
Finding max control volume width.
Communicating number of neighbors.
Semi-span length = 3 m.
Wetted area = 10.2516 m^2.
Area projection in the x-plane = 0.35154 m^2, y-plane = 0.324873 m^2, z-plane = 4.93147 m^2.
Max. coordinate in the x-direction = 2.688 m, y-direction = 3 m, z-direction = 0.0887669 m.
Min. coordinate in the x-direction = 0 m, y-direction = 0 m, z-direction = -0.0887669 m.
Computing wall distances.

-------------------- Solver Preprocessing ( Zone 0 ) --------------------
Inviscid flow: Computing density based on free-stream
temperature and pressure using the ideal gas law.
Force coefficients computed using free-stream values.

-- Models:
+------------------------------------------------------------------------------+
|          Viscosity Model|        Conductivity Model|              Fluid Model|
+------------------------------------------------------------------------------+
|                        -|                         -|             STANDARD_AIR|
+------------------------------------------------------------------------------+
-- Fluid properties:
+------------------------------------------------------------------------------+
|                  Name|    Dim. value|    Ref. value|      Unit|Non-dim. value|
+------------------------------------------------------------------------------+
|          Gas Constant|       287.058|             1|  N.m/kg.K|       287.058|
|      Spec. Heat Ratio|             -|             -|         -|           1.4|
+------------------------------------------------------------------------------+
-- Initial and free-stream conditions:
+------------------------------------------------------------------------------+
|                  Name|    Dim. value|    Ref. value|      Unit|Non-dim. value|
+------------------------------------------------------------------------------+
|       Static Pressure|       26436.3|             1|        Pa|       26436.3|
|               Density|        0.4127|             1|    kg/m^3|        0.4127|
|           Temperature|        223.15|             1|         K|        223.15|
|          Total Energy|        192539|             1|   m^2/s^2|        192539|
|            Velocity-X|       254.197|             1|       m/s|       254.197|
|            Velocity-Y|             0|             1|       m/s|             0|
|            Velocity-Z|       13.3219|             1|       m/s|       13.3219|
|    Velocity Magnitude|       254.546|             1|       m/s|       254.546|
+------------------------------------------------------------------------------+
|           Mach Number|             -|             -|         -|          0.85|
+------------------------------------------------------------------------------+
Initialize Jacobian structure (Euler). MG level: 0.

------------------- Numerics Preprocessing ( Zone 0 ) -------------------

----------------- Integration Preprocessing ( Zone 0 ) ------------------

------------------- Iteration Preprocessing ( Zone 0 ) ------------------
Euler/Navier-Stokes/RANS fluid iteration.

------------------------------ Begin Solver -----------------------------

Simulation Run using the Single-zone Driver
+---------------------------------------------------+
|  Inner_Iter|    rms[Rho]|          CL|          CD|
+---------------------------------------------------+
|           0|   -2.304488|    0.063990|    0.022825|
|           1|   -2.351376|    0.093275|    0.028531|
|           2|   -2.370075|    0.119494|    0.033655|
|           3|   -2.396482|    0.142366|    0.038051|
|           4|   -2.429942|    0.161742|    0.041620|
|           5|   -2.468335|    0.177578|    0.044303|
|           6|   -2.508171|    0.189929|    0.046077|
|           7|   -2.544767|    0.198939|    0.046958|
|           8|   -2.573302|    0.204829|    0.046997|
|           9|   -2.590644|    0.207874|    0.046275|
|          10|   -2.596987|    0.208395|    0.044896|
|          11|   -2.595502|    0.206742|    0.042976|
|          12|   -2.590396|    0.203281|    0.040643|
|          13|   -2.585197|    0.198383|    0.038020|
|          14|   -2.582118|    0.192411|    0.035227|
|          15|   -2.582142|    0.185709|    0.032374|
|          16|   -2.585331|    0.178596|    0.029553|
|          17|   -2.591131|    0.171358|    0.026844|
|          18|   -2.598611|    0.164240|    0.024307|
|          19|   -2.606665|    0.157447|    0.021987|
|          20|   -2.614239|    0.151141|    0.019911|
|          21|   -2.620519|    0.145443|    0.018094|
|          22|   -2.625081|    0.140431|    0.016538|
|          23|   -2.627922|    0.136150|    0.015235|
|          24|   -2.629389|    0.132612|    0.014170|
|          25|   -2.630030|    0.129796|    0.013321|
|          26|   -2.630428|    0.127661|    0.012663|
|          27|   -2.631078|    0.126143|    0.012171|
|          28|   -2.632311|    0.125167|    0.011815|
|          29|   -2.634280|    0.124648|    0.011571|
|          30|   -2.636976|    0.124495|    0.011414|
|          31|   -2.640264|    0.124620|    0.011320|
|          32|   -2.643935|    0.124936|    0.011270|
|          33|   -2.647757|    0.125363|    0.011247|
|          34|   -2.651518|    0.125830|    0.011238|
|          35|   -2.655056|    0.126278|    0.011231|
|          36|   -2.658280|    0.126658|    0.011217|
|          37|   -2.661165|    0.126930|    0.011192|
|          38|   -2.663741|    0.127069|    0.011151|
|          39|   -2.666071|    0.127059|    0.011091|
|          40|   -2.668223|    0.126893|    0.011012|
|          41|   -2.670252|    0.126573|    0.010916|
|          42|   -2.672184|    0.126108|    0.010802|
|          43|   -2.674014|    0.125511|    0.010673|
|          44|   -2.675704|    0.124802|    0.010531|
|          45|   -2.677192|    0.124001|    0.010379|
|          46|   -2.678407|    0.123129|    0.010219|
|          47|   -2.679283|    0.122210|    0.010054|
|          48|   -2.679765|    0.121262|    0.009887|
|          49|   -2.679825|    0.120308|    0.009718|
|          50|   -2.679460|    0.119362|    0.009550|
|          51|   -2.678697|    0.118440|    0.009384|
|          52|   -2.677578|    0.117554|    0.009222|
|          53|   -2.676166|    0.116712|    0.009063|
|          54|   -2.674522|    0.115920|    0.008909|
|          55|   -2.672701|    0.115181|    0.008760|
|          56|   -2.670741|    0.114497|    0.008616|
|          57|   -2.668658|    0.113867|    0.008476|
|          58|   -2.666437|    0.113288|    0.008342|
|          59|   -2.664030|    0.112758|    0.008212|
|          60|   -2.661363|    0.112272|    0.008087|
|          61|   -2.658333|    0.111825|    0.007966|
|          62|   -2.654823|    0.111413|    0.007849|
|          63|   -2.650711|    0.111032|    0.007735|
|          64|   -2.645885|    0.110677|    0.007625|
|          65|   -2.640258|    0.110344|    0.007519|
|          66|   -2.633781|    0.110032|    0.007415|
|          67|   -2.626450|    0.109736|    0.007315|
|          68|   -2.618311|    0.109456|    0.007218|
|          69|   -2.609454|    0.109190|    0.007123|
|          70|   -2.600004|    0.108937|    0.007031|
|          71|   -2.590107|    0.108698|    0.006942|
|          72|   -2.579919|    0.108471|    0.006855|
|          73|   -2.569589|    0.108258|    0.006771|
|          74|   -2.559253|    0.108058|    0.006690|
|          75|   -2.549025|    0.107871|    0.006610|
|          76|   -2.538994|    0.107699|    0.006533|
|          77|   -2.529225|    0.107541|    0.006458|
|          78|   -2.519763|    0.107397|    0.006385|
|          79|   -2.510635|    0.107266|    0.006313|
|          80|   -2.501855|    0.107150|    0.006243|
|          81|   -2.493432|    0.107046|    0.006175|
|          82|   -2.485375|    0.106954|    0.006108|
|          83|   -2.477691|    0.106874|    0.006043|
|          84|   -2.470391|    0.106804|    0.005978|
|          85|   -2.463490|    0.106743|    0.005915|
|          86|   -2.457003|    0.106690|    0.005853|
|          87|   -2.450949|    0.106645|    0.005791|
|          88|   -2.445340|    0.106606|    0.005730|
|          89|   -2.440185|    0.106571|    0.005671|
|          90|   -2.435485|    0.106541|    0.005611|
|          91|   -2.431230|    0.106515|    0.005553|
|          92|   -2.427401|    0.106491|    0.005494|
|          93|   -2.423968|    0.106469|    0.005437|
|          94|   -2.420877|    0.106449|    0.005380|
|          95|   -2.418068|    0.106430|    0.005323|
|          96|   -2.415469|    0.106412|    0.005267|
|          97|   -2.413000|    0.106394|    0.005211|
|          98|   -2.410577|    0.106378|    0.005156|
|          99|   -2.408120|    0.106362|    0.005101|
|         100|   -2.405548|    0.106346|    0.005046|
|         101|   -2.402796|    0.106332|    0.004992|
|         102|   -2.399809|    0.106318|    0.004938|
|         103|   -2.396554|    0.106304|    0.004885|
|         104|   -2.393020|    0.106292|    0.004832|
|         105|   -2.389224|    0.106280|    0.004779|
|         106|   -2.385198|    0.106269|    0.004726|
|         107|   -2.380999|    0.106259|    0.004674|
|         108|   -2.376702|    0.106249|    0.004621|
|         109|   -2.372389|    0.106241|    0.004569|
|         110|   -2.368150|    0.106233|    0.004517|
|         111|   -2.364074|    0.106226|    0.004466|
|         112|   -2.360251|    0.106219|    0.004414|
|         113|   -2.356754|    0.106214|    0.004363|
|         114|   -2.353648|    0.106208|    0.004311|
|         115|   -2.350985|    0.106204|    0.004260|
|         116|   -2.348804|    0.106200|    0.004209|
|         117|   -2.347123|    0.106196|    0.004158|
|         118|   -2.345953|    0.106192|    0.004107|
|         119|   -2.345292|    0.106189|    0.004057|
|         120|   -2.345123|    0.106187|    0.004006|
|         121|   -2.345425|    0.106185|    0.003956|
|         122|   -2.346170|    0.106183|    0.003906|
|         123|   -2.347330|    0.106182|    0.003856|
|         124|   -2.348875|    0.106181|    0.003806|
|         125|   -2.350768|    0.106181|    0.003756|
|         126|   -2.352990|    0.106181|    0.003707|
|         127|   -2.355522|    0.106182|    0.003658|
|         128|   -2.358344|    0.106183|    0.003609|
|         129|   -2.361442|    0.106186|    0.003560|
|         130|   -2.364806|    0.106189|    0.003512|
|         131|   -2.368429|    0.106193|    0.003464|
|         132|   -2.372310|    0.106197|    0.003417|
|         133|   -2.376443|    0.106203|    0.003369|
|         134|   -2.380824|    0.106210|    0.003322|
|         135|   -2.385447|    0.106217|    0.003276|
|         136|   -2.390307|    0.106226|    0.003230|
|         137|   -2.395402|    0.106235|    0.003184|
|         138|   -2.400729|    0.106246|    0.003138|
|         139|   -2.406284|    0.106258|    0.003093|
|         140|   -2.412069|    0.106271|    0.003049|
|         141|   -2.418082|    0.106285|    0.003004|
|         142|   -2.424322|    0.106300|    0.002960|
|         143|   -2.430784|    0.106316|    0.002917|
|         144|   -2.437468|    0.106334|    0.002873|
|         145|   -2.444375|    0.106353|    0.002831|
|         146|   -2.451496|    0.106373|    0.002788|
|         147|   -2.458830|    0.106395|    0.002746|
|         148|   -2.466365|    0.106418|    0.002704|
|         149|   -2.474092|    0.106443|    0.002662|
|         150|   -2.481994|    0.106470|    0.002621|
|         151|   -2.490055|    0.106499|    0.002580|
|         152|   -2.498255|    0.106529|    0.002540|
|         153|   -2.506572|    0.106562|    0.002499|
|         154|   -2.514987|    0.106597|    0.002459|
|         155|   -2.523482|    0.106634|    0.002419|
|         156|   -2.532047|    0.106674|    0.002380|
|         157|   -2.540669|    0.106716|    0.002340|
|         158|   -2.549343|    0.106761|    0.002301|
|         159|   -2.558070|    0.106808|    0.002262|
|         160|   -2.566854|    0.106858|    0.002223|
|         161|   -2.575702|    0.106911|    0.002185|
|         162|   -2.584624|    0.106968|    0.002147|
|         163|   -2.593631|    0.107027|    0.002109|
|         164|   -2.602731|    0.107089|    0.002071|
|         165|   -2.611930|    0.107155|    0.002033|
|         166|   -2.621231|    0.107224|    0.001996|
|         167|   -2.630629|    0.107296|    0.001958|
|         168|   -2.640116|    0.107372|    0.001921|
|         169|   -2.649679|    0.107451|    0.001885|
|         170|   -2.659297|    0.107533|    0.001848|
|         171|   -2.668943|    0.107619|    0.001812|
|         172|   -2.678591|    0.107708|    0.001776|
|         173|   -2.688206|    0.107801|    0.001740|
|         174|   -2.697755|    0.107897|    0.001704|
|         175|   -2.707207|    0.107996|    0.001669|
|         176|   -2.716531|    0.108099|    0.001635|
|         177|   -2.725699|    0.108205|    0.001600|
|         178|   -2.734694|    0.108315|    0.001566|
|         179|   -2.743502|    0.108428|    0.001533|
|         180|   -2.752118|    0.108544|    0.001500|
|         181|   -2.760537|    0.108663|    0.001468|
|         182|   -2.768768|    0.108785|    0.001436|
|         183|   -2.776822|    0.108911|    0.001405|
|         184|   -2.784705|    0.109039|    0.001375|
|         185|   -2.792430|    0.109170|    0.001345|
|         186|   -2.800005|    0.109304|    0.001317|
|         187|   -2.807436|    0.109440|    0.001289|
|         188|   -2.814726|    0.109579|    0.001262|
|         189|   -2.821878|    0.109720|    0.001237|
|         190|   -2.828891|    0.109863|    0.001212|
|         191|   -2.835759|    0.110007|    0.001189|
|         192|   -2.842478|    0.110154|    0.001166|
|         193|   -2.849040|    0.110302|    0.001146|
|         194|   -2.855441|    0.110452|    0.001126|
|         195|   -2.861676|    0.110602|    0.001108|
|         196|   -2.867743|    0.110753|    0.001092|
|         197|   -2.873641|    0.110905|    0.001077|
|         198|   -2.879373|    0.111057|    0.001064|
|         199|   -2.884942|    0.111209|    0.001053|
|         200|   -2.890356|    0.111360|    0.001043|
|         201|   -2.895621|    0.111511|    0.001036|
|         202|   -2.900744|    0.111661|    0.001030|
|         203|   -2.905734|    0.111810|    0.001026|
|         204|   -2.910598|    0.111956|    0.001025|
|         205|   -2.915345|    0.112101|    0.001025|
|         206|   -2.919979|    0.112244|    0.001028|
|         207|   -2.924508|    0.112383|    0.001032|
|         208|   -2.928935|    0.112520|    0.001039|
|         209|   -2.933265|    0.112653|    0.001049|
|         210|   -2.937500|    0.112782|    0.001060|
|         211|   -2.941645|    0.112907|    0.001074|
|         212|   -2.945700|    0.113028|    0.001090|
|         213|   -2.949669|    0.113143|    0.001108|
|         214|   -2.953555|    0.113253|    0.001129|
|         215|   -2.957360|    0.113358|    0.001152|
|         216|   -2.961086|    0.113456|    0.001177|
|         217|   -2.964735|    0.113548|    0.001204|
|         218|   -2.968309|    0.113633|    0.001233|
|         219|   -2.971811|    0.113712|    0.001264|
|         220|   -2.975243|    0.113783|    0.001298|
|         221|   -2.978607|    0.113846|    0.001333|
|         222|   -2.981905|    0.113902|    0.001370|
|         223|   -2.985138|    0.113950|    0.001409|
|         224|   -2.988308|    0.113989|    0.001449|
|         225|   -2.991416|    0.114021|    0.001491|
|         226|   -2.994463|    0.114043|    0.001535|
|         227|   -2.997450|    0.114057|    0.001579|
|         228|   -3.000378|    0.114062|    0.001625|
|         229|   -3.003248|    0.114059|    0.001671|
|         230|   -3.006060|    0.114047|    0.001719|
|         231|   -3.008815|    0.114025|    0.001767|
|         232|   -3.011513|    0.113995|    0.001816|
|         233|   -3.014154|    0.113957|    0.001865|
|         234|   -3.016738|    0.113909|    0.001914|
|         235|   -3.019265|    0.113854|    0.001962|
|         236|   -3.021735|    0.113790|    0.002011|
|         237|   -3.024149|    0.113717|    0.002059|
|         238|   -3.026506|    0.113637|    0.002107|
|         239|   -3.028806|    0.113550|    0.002154|
|         240|   -3.031050|    0.113455|    0.002200|
|         241|   -3.033236|    0.113352|    0.002244|
|         242|   -3.035366|    0.113244|    0.002288|
|         243|   -3.037440|    0.113128|    0.002329|
|         244|   -3.039459|    0.113007|    0.002369|
|         245|   -3.041424|    0.112881|    0.002407|
|         246|   -3.043336|    0.112749|    0.002443|
|         247|   -3.045198|    0.112612|    0.002477|
|         248|   -3.047011|    0.112471|    0.002508|
|         249|   -3.048777|    0.112327|    0.002537|
|         250|   -3.050500|    0.112179|    0.002562|
+-----------------------------------------------------------------------+
|        File Writing Summary       |              Filename             |
+-----------------------------------------------------------------------+
|SU2 binary restart                 |restart_flow.dat                   |
|CSV file                           |surface_flow.csv                   |
+-----------------------------------------------------------------------+
+---------------------------------------------------+
|  Inner_Iter|    rms[Rho]|          CL|          CD|
+---------------------------------------------------+
|         251|   -3.052182|    0.112028|    0.002585|
|         252|   -3.053826|    0.111874|    0.002605|
|         253|   -3.055437|    0.111719|    0.002622|
|         254|   -3.057018|    0.111561|    0.002636|
|         255|   -3.058572|    0.111403|    0.002646|
|         256|   -3.060103|    0.111244|    0.002652|
|         257|   -3.061613|    0.111085|    0.002656|
|         258|   -3.063107|    0.110926|    0.002655|
|         259|   -3.064588|    0.110767|    0.002651|
|         260|   -3.066057|    0.110609|    0.002643|
|         261|   -3.067517|    0.110452|    0.002631|
|         262|   -3.068970|    0.110297|    0.002616|
|         263|   -3.070416|    0.110144|    0.002596|
|         264|   -3.071857|    0.109993|    0.002573|
|         265|   -3.073294|    0.109844|    0.002546|
|         266|   -3.074726|    0.109698|    0.002515|
|         267|   -3.076154|    0.109555|    0.002481|
|         268|   -3.077576|    0.109414|    0.002442|
|         269|   -3.078992|    0.109277|    0.002400|
|         270|   -3.080400|    0.109144|    0.002354|
|         271|   -3.081800|    0.109013|    0.002305|
|         272|   -3.083190|    0.108887|    0.002252|
|         273|   -3.084569|    0.108763|    0.002195|
|         274|   -3.085936|    0.108644|    0.002135|
|         275|   -3.087289|    0.108528|    0.002072|
|         276|   -3.088627|    0.108415|    0.002006|
|         277|   -3.089949|    0.108306|    0.001936|
|         278|   -3.091254|    0.108201|    0.001864|
|         279|   -3.092540|    0.108099|    0.001788|
|         280|   -3.093807|    0.108000|    0.001710|
|         281|   -3.095054|    0.107905|    0.001629|
|         282|   -3.096281|    0.107812|    0.001546|
|         283|   -3.097487|    0.107723|    0.001460|
|         284|   -3.098672|    0.107637|    0.001372|
|         285|   -3.099836|    0.107553|    0.001282|
|         286|   -3.100979|    0.107471|    0.001190|
|         287|   -3.102102|    0.107392|    0.001096|
|         288|   -3.103205|    0.107315|    0.001000|
|         289|   -3.104288|    0.107241|    0.000903|
|         290|   -3.105352|    0.107168|    0.000804|
|         291|   -3.106398|    0.107096|    0.000704|
|         292|   -3.107426|    0.107026|    0.000603|
|         293|   -3.108435|    0.106958|    0.000501|
|         294|   -3.109428|    0.106890|    0.000398|
|         295|   -3.110403|    0.106823|    0.000294|
|         296|   -3.111361|    0.106757|    0.000190|
|         297|   -3.112303|    0.106692|    0.000085|
|         298|   -3.113229|    0.106627|   -0.000020|
|         299|   -3.114138|    0.106563|   -0.000125|
|         300|   -3.115031|    0.106498|   -0.000231|
|         301|   -3.115907|    0.106434|   -0.000337|
|         302|   -3.116766|    0.106370|   -0.000442|
|         303|   -3.117607|    0.106305|   -0.000547|
|         304|   -3.118431|    0.106240|   -0.000652|
|         305|   -3.119236|    0.106175|   -0.000757|
|         306|   -3.120021|    0.106110|   -0.000861|
|         307|   -3.120787|    0.106044|   -0.000965|
|         308|   -3.121533|    0.105977|   -0.001068|
|         309|   -3.122258|    0.105910|   -0.001170|
|         310|   -3.122962|    0.105843|   -0.001272|
|         311|   -3.123644|    0.105775|   -0.001373|
|         312|   -3.124305|    0.105706|   -0.001472|
|         313|   -3.124944|    0.105637|   -0.001571|
|         314|   -3.125561|    0.105567|   -0.001669|
|         315|   -3.126157|    0.105496|   -0.001766|
|         316|   -3.126731|    0.105425|   -0.001862|
|         317|   -3.127284|    0.105354|   -0.001957|
|         318|   -3.127816|    0.105283|   -0.002050|
|         319|   -3.128329|    0.105211|   -0.002143|
|         320|   -3.128823|    0.105138|   -0.002234|
|         321|   -3.129299|    0.105066|   -0.002324|
|         322|   -3.129758|    0.104993|   -0.002413|
|         323|   -3.130201|    0.104921|   -0.002500|
|         324|   -3.130629|    0.104849|   -0.002587|
|         325|   -3.131044|    0.104776|   -0.002672|
|         326|   -3.131446|    0.104704|   -0.002756|
|         327|   -3.131837|    0.104633|   -0.002839|
|         328|   -3.132218|    0.104562|   -0.002920|
|         329|   -3.132591|    0.104491|   -0.003001|
|         330|   -3.132955|    0.104422|   -0.003080|
|         331|   -3.133313|    0.104353|   -0.003158|
|         332|   -3.133664|    0.104285|   -0.003235|
|         333|   -3.134011|    0.104218|   -0.003310|
|         334|   -3.134353|    0.104152|   -0.003385|
|         335|   -3.134692|    0.104087|   -0.003458|
|         336|   -3.135028|    0.104023|   -0.003530|
|         337|   -3.135361|    0.103962|   -0.003602|
|         338|   -3.135693|    0.103901|   -0.003672|
|         339|   -3.136024|    0.103842|   -0.003741|
|         340|   -3.136354|    0.103785|   -0.003808|
|         341|   -3.136684|    0.103729|   -0.003875|
|         342|   -3.137014|    0.103676|   -0.003941|
|         343|   -3.137343|    0.103624|   -0.004006|
|         344|   -3.137672|    0.103574|   -0.004069|
|         345|   -3.138002|    0.103526|   -0.004132|
|         346|   -3.138331|    0.103481|   -0.004194|
|         347|   -3.138662|    0.103437|   -0.004255|
|         348|   -3.138992|    0.103396|   -0.004315|
|         349|   -3.139322|    0.103357|   -0.004373|
|         350|   -3.139653|    0.103320|   -0.004431|
|         351|   -3.139983|    0.103285|   -0.004488|
|         352|   -3.140312|    0.103252|   -0.004544|
|         353|   -3.140640|    0.103222|   -0.004600|
|         354|   -3.140967|    0.103194|   -0.004654|
|         355|   -3.141292|    0.103169|   -0.004707|
|         356|   -3.141615|    0.103145|   -0.004760|
|         357|   -3.141935|    0.103125|   -0.004811|
|         358|   -3.142252|    0.103106|   -0.004862|
|         359|   -3.142565|    0.103090|   -0.004911|
|         360|   -3.142874|    0.103075|   -0.004960|
|         361|   -3.143179|    0.103064|   -0.005008|
|         362|   -3.143479|    0.103054|   -0.005055|
|         363|   -3.143775|    0.103047|   -0.005101|
|         364|   -3.144068|    0.103041|   -0.005147|
|         365|   -3.144355|    0.103038|   -0.005191|
|         366|   -3.144637|    0.103037|   -0.005235|
|         367|   -3.144915|    0.103039|   -0.005277|
|         368|   -3.145187|    0.103042|   -0.005319|
|         369|   -3.145456|    0.103047|   -0.005360|
|         370|   -3.145719|    0.103054|   -0.005399|
|         371|   -3.145979|    0.103063|   -0.005438|
|         372|   -3.146234|    0.103074|   -0.005476|
|         373|   -3.146487|    0.103086|   -0.005514|
|         374|   -3.146736|    0.103100|   -0.005550|
|         375|   -3.146981|    0.103116|   -0.005585|
|         376|   -3.147225|    0.103134|   -0.005620|
|         377|   -3.147467|    0.103153|   -0.005653|
|         378|   -3.147708|    0.103174|   -0.005686|
|         379|   -3.147949|    0.103196|   -0.005717|
|         380|   -3.148189|    0.103220|   -0.005748|
|         381|   -3.148431|    0.103245|   -0.005778|
|         382|   -3.148674|    0.103271|   -0.005807|
|         383|   -3.148920|    0.103299|   -0.005835|
|         384|   -3.149170|    0.103327|   -0.005862|
|         385|   -3.149423|    0.103357|   -0.005888|
|         386|   -3.149681|    0.103388|   -0.005913|
|         387|   -3.149944|    0.103420|   -0.005937|
|         388|   -3.150213|    0.103453|   -0.005961|
|         389|   -3.150488|    0.103487|   -0.005983|
|         390|   -3.150771|    0.103521|   -0.006005|
|         391|   -3.151061|    0.103556|   -0.006026|
|         392|   -3.151360|    0.103592|   -0.006046|
|         393|   -3.151669|    0.103629|   -0.006064|
|         394|   -3.151988|    0.103666|   -0.006083|
|         395|   -3.152317|    0.103704|   -0.006100|
|         396|   -3.152658|    0.103742|   -0.006116|
|         397|   -3.153010|    0.103781|   -0.006131|
|         398|   -3.153375|    0.103820|   -0.006146|
|         399|   -3.153753|    0.103859|   -0.006160|
|         400|   -3.154145|    0.103899|   -0.006173|
|         401|   -3.154551|    0.103939|   -0.006185|
|         402|   -3.154972|    0.103978|   -0.006196|
|         403|   -3.155409|    0.104018|   -0.006206|
|         404|   -3.155861|    0.104058|   -0.006216|
|         405|   -3.156330|    0.104098|   -0.006225|
|         406|   -3.156815|    0.104138|   -0.006233|
|         407|   -3.157316|    0.104178|   -0.006240|
|         408|   -3.157835|    0.104218|   -0.006246|
|         409|   -3.158372|    0.104257|   -0.006252|
|         410|   -3.158926|    0.104296|   -0.006257|
|         411|   -3.159500|    0.104335|   -0.006261|
|         412|   -3.160092|    0.104373|   -0.006264|
|         413|   -3.160703|    0.104412|   -0.006266|
|         414|   -3.161335|    0.104449|   -0.006268|
|         415|   -3.161987|    0.104487|   -0.006269|
|         416|   -3.162662|    0.104523|   -0.006269|
|         417|   -3.163358|    0.104560|   -0.006269|
|         418|   -3.164076|    0.104595|   -0.006268|
|         419|   -3.164819|    0.104630|   -0.006266|
|         420|   -3.165585|    0.104665|   -0.006263|
|         421|   -3.166376|    0.104699|   -0.006260|
|         422|   -3.167194|    0.104732|   -0.006256|
|         423|   -3.168038|    0.104765|   -0.006251|
|         424|   -3.168910|    0.104797|   -0.006246|
|         425|   -3.169811|    0.104828|   -0.006240|
|         426|   -3.170742|    0.104858|   -0.006233|
|         427|   -3.171704|    0.104888|   -0.006225|
|         428|   -3.172697|    0.104917|   -0.006217|
|         429|   -3.173722|    0.104945|   -0.006208|
|         430|   -3.174780|    0.104973|   -0.006199|
|         431|   -3.175873|    0.104999|   -0.006189|
|         432|   -3.177001|    0.105025|   -0.006178|
|         433|   -3.178166|    0.105050|   -0.006166|
|         434|   -3.179367|    0.105075|   -0.006154|
|         435|   -3.180606|    0.105098|   -0.006141|
|         436|   -3.181884|    0.105121|   -0.006128|
|         437|   -3.183200|    0.105142|   -0.006114|
|         438|   -3.184556|    0.105163|   -0.006099|
|         439|   -3.185952|    0.105183|   -0.006083|
|         440|   -3.187387|    0.105203|   -0.006067|
|         441|   -3.188862|    0.105221|   -0.006051|
|         442|   -3.190377|    0.105239|   -0.006034|
|         443|   -3.191933|    0.105256|   -0.006016|
|         444|   -3.193528|    0.105272|   -0.005997|
|         445|   -3.195164|    0.105287|   -0.005978|
|         446|   -3.196839|    0.105301|   -0.005959|
|         447|   -3.198554|    0.105315|   -0.005939|
|         448|   -3.200307|    0.105328|   -0.005918|
|         449|   -3.202100|    0.105341|   -0.005897|
|         450|   -3.203930|    0.105352|   -0.005875|
|         451|   -3.205797|    0.105363|   -0.005852|
|         452|   -3.207702|    0.105373|   -0.005829|
|         453|   -3.209642|    0.105383|   -0.005806|
|         454|   -3.211618|    0.105391|   -0.005782|
|         455|   -3.213628|    0.105400|   -0.005758|
|         456|   -3.215673|    0.105407|   -0.005733|
|         457|   -3.217751|    0.105414|   -0.005707|
|         458|   -3.219860|    0.105421|   -0.005681|
|         459|   -3.222002|    0.105427|   -0.005655|
|         460|   -3.224173|    0.105432|   -0.005628|
|         461|   -3.226374|    0.105437|   -0.005601|
|         462|   -3.228604|    0.105441|   -0.005574|
|         463|   -3.230861|    0.105445|   -0.005546|
|         464|   -3.233145|    0.105449|   -0.005518|
|         465|   -3.235456|    0.105452|   -0.005489|
|         466|   -3.237791|    0.105455|   -0.005460|
|         467|   -3.240151|    0.105457|   -0.005431|
|         468|   -3.242533|    0.105459|   -0.005401|
|         469|   -3.244938|    0.105461|   -0.005371|
|         470|   -3.247363|    0.105462|   -0.005341|
|         471|   -3.249807|    0.105463|   -0.005311|
|         472|   -3.252271|    0.105464|   -0.005280|
|         473|   -3.254753|    0.105465|   -0.005249|
|         474|   -3.257251|    0.105466|   -0.005219|
|         475|   -3.259766|    0.105466|   -0.005187|
|         476|   -3.262295|    0.105467|   -0.005156|
|         477|   -3.264837|    0.105467|   -0.005125|
|         478|   -3.267392|    0.105467|   -0.005094|
|         479|   -3.269959|    0.105468|   -0.005062|
|         480|   -3.272535|    0.105468|   -0.005031|
|         481|   -3.275120|    0.105468|   -0.004999|
|         482|   -3.277713|    0.105468|   -0.004968|
|         483|   -3.280312|    0.105469|   -0.004937|
|         484|   -3.282917|    0.105469|   -0.004905|
|         485|   -3.285526|    0.105470|   -0.004874|
|         486|   -3.288138|    0.105471|   -0.004843|
|         487|   -3.290753|    0.105472|   -0.004812|
|         488|   -3.293369|    0.105473|   -0.004781|
|         489|   -3.295985|    0.105475|   -0.004751|
|         490|   -3.298600|    0.105477|   -0.004720|
|         491|   -3.301213|    0.105479|   -0.004690|
|         492|   -3.303823|    0.105481|   -0.004660|
|         493|   -3.306429|    0.105484|   -0.004631|
|         494|   -3.309031|    0.105487|   -0.004602|
|         495|   -3.311626|    0.105490|   -0.004573|
|         496|   -3.314215|    0.105494|   -0.004544|
|         497|   -3.316796|    0.105498|   -0.004516|
|         498|   -3.319368|    0.105503|   -0.004488|
|         499|   -3.321930|    0.105508|   -0.004461|
|         500|   -3.324482|    0.105513|   -0.004434|
+-----------------------------------------------------------------------+
|        File Writing Summary       |              Filename             |
+-----------------------------------------------------------------------+
|SU2 binary restart                 |restart_flow.dat                   |
|CSV file                           |surface_flow.csv                   |
+-----------------------------------------------------------------------+
+---------------------------------------------------+
|  Inner_Iter|    rms[Rho]|          CL|          CD|
+---------------------------------------------------+
|         501|   -3.327021|    0.105519|   -0.004408|
|         502|   -3.329547|    0.105525|   -0.004382|
|         503|   -3.332060|    0.105531|   -0.004357|
|         504|   -3.334558|    0.105539|   -0.004332|
|         505|   -3.337040|    0.105546|   -0.004308|
|         506|   -3.339505|    0.105554|   -0.004284|
|         507|   -3.341953|    0.105562|   -0.004261|
|         508|   -3.344384|    0.105571|   -0.004238|
|         509|   -3.346796|    0.105580|   -0.004216|
|         510|   -3.349188|    0.105590|   -0.004195|
|         511|   -3.351560|    0.105600|   -0.004174|
|         512|   -3.353912|    0.105611|   -0.004154|
|         513|   -3.356242|    0.105622|   -0.004135|
|         514|   -3.358551|    0.105633|   -0.004116|
|         515|   -3.360838|    0.105644|   -0.004098|
|         516|   -3.363104|    0.105656|   -0.004081|
|         517|   -3.365346|    0.105668|   -0.004064|
|         518|   -3.367566|    0.105681|   -0.004048|
|         519|   -3.369763|    0.105694|   -0.004033|
|         520|   -3.371936|    0.105707|   -0.004018|
|         521|   -3.374086|    0.105720|   -0.004004|
|         522|   -3.376212|    0.105733|   -0.003991|
|         523|   -3.378314|    0.105747|   -0.003978|
|         524|   -3.380393|    0.105761|   -0.003967|
|         525|   -3.382447|    0.105775|   -0.003955|
|         526|   -3.384477|    0.105789|   -0.003945|
|         527|   -3.386483|    0.105803|   -0.003935|
|         528|   -3.388464|    0.105817|   -0.003926|
|         529|   -3.390420|    0.105831|   -0.003918|
|         530|   -3.392351|    0.105845|   -0.003910|
|         531|   -3.394257|    0.105859|   -0.003903|
|         532|   -3.396137|    0.105873|   -0.003896|
|         533|   -3.397993|    0.105887|   -0.003890|
|         534|   -3.399824|    0.105900|   -0.003884|
|         535|   -3.401630|    0.105914|   -0.003880|
|         536|   -3.403411|    0.105927|   -0.003875|
|         537|   -3.405167|    0.105940|   -0.003872|
|         538|   -3.406898|    0.105952|   -0.003868|
|         539|   -3.408604|    0.105964|   -0.003866|
|         540|   -3.410285|    0.105976|   -0.003863|
|         541|   -3.411941|    0.105987|   -0.003861|
|         542|   -3.413574|    0.105997|   -0.003860|
|         543|   -3.415184|    0.106007|   -0.003859|
|         544|   -3.416770|    0.106017|   -0.003858|
|         545|   -3.418334|    0.106026|   -0.003858|
|         546|   -3.419875|    0.106034|   -0.003858|
|         547|   -3.421394|    0.106042|   -0.003858|
|         548|   -3.422890|    0.106049|   -0.003859|
|         549|   -3.424365|    0.106055|   -0.003860|
|         550|   -3.425817|    0.106060|   -0.003861|
|         551|   -3.427248|    0.106065|   -0.003862|
|         552|   -3.428655|    0.106069|   -0.003863|
|         553|   -3.430042|    0.106071|   -0.003864|
|         554|   -3.431407|    0.106074|   -0.003866|
|         555|   -3.432750|    0.106075|   -0.003868|
|         556|   -3.434073|    0.106075|   -0.003869|
|         557|   -3.435375|    0.106075|   -0.003871|
|         558|   -3.436656|    0.106073|   -0.003872|
|         559|   -3.437918|    0.106071|   -0.003874|
|         560|   -3.439160|    0.106067|   -0.003875|
|         561|   -3.440383|    0.106063|   -0.003876|
|         562|   -3.441589|    0.106058|   -0.003878|
|         563|   -3.442775|    0.106051|   -0.003879|
|         564|   -3.443944|    0.106044|   -0.003879|
|         565|   -3.445095|    0.106036|   -0.003880|
|         566|   -3.446230|    0.106027|   -0.003880|
|         567|   -3.447348|    0.106016|   -0.003880|
|         568|   -3.448450|    0.106005|   -0.003880|
|         569|   -3.449537|    0.105993|   -0.003879|
|         570|   -3.450609|    0.105980|   -0.003878|
|         571|   -3.451665|    0.105966|   -0.003877|
|         572|   -3.452707|    0.105950|   -0.003875|
|         573|   -3.453734|    0.105934|   -0.003873|
|         574|   -3.454748|    0.105917|   -0.003870|
|         575|   -3.455747|    0.105899|   -0.003867|
|         576|   -3.456734|    0.105880|   -0.003864|
|         577|   -3.457709|    0.105860|   -0.003859|
|         578|   -3.458671|    0.105839|   -0.003855|
|         579|   -3.459623|    0.105817|   -0.003850|
|         580|   -3.460565|    0.105795|   -0.003844|
|         581|   -3.461498|    0.105771|   -0.003838|
|         582|   -3.462422|    0.105747|   -0.003831|
|         583|   -3.463337|    0.105722|   -0.003824|
|         584|   -3.464244|    0.105696|   -0.003816|
|         585|   -3.465143|    0.105669|   -0.003808|
|         586|   -3.466034|    0.105642|   -0.003799|
|         587|   -3.466918|    0.105614|   -0.003790|
|         588|   -3.467795|    0.105585|   -0.003779|
|         589|   -3.468666|    0.105556|   -0.003769|
|         590|   -3.469530|    0.105526|   -0.003757|
|         591|   -3.470388|    0.105495|   -0.003746|
|         592|   -3.471241|    0.105464|   -0.003733|
|         593|   -3.472088|    0.105432|   -0.003720|
|         594|   -3.472932|    0.105400|   -0.003707|
|         595|   -3.473772|    0.105368|   -0.003692|
|         596|   -3.474608|    0.105335|   -0.003678|
|         597|   -3.475441|    0.105301|   -0.003662|
|         598|   -3.476271|    0.105267|   -0.003647|
|         599|   -3.477099|    0.105233|   -0.003630|
|         600|   -3.477924|    0.105199|   -0.003613|
|         601|   -3.478746|    0.105164|   -0.003596|
|         602|   -3.479567|    0.105129|   -0.003578|
|         603|   -3.480386|    0.105094|   -0.003560|
|         604|   -3.481203|    0.105058|   -0.003541|
|         605|   -3.482019|    0.105022|   -0.003522|
|         606|   -3.482834|    0.104986|   -0.003502|
|         607|   -3.483649|    0.104950|   -0.003482|
|         608|   -3.484463|    0.104914|   -0.003461|
|         609|   -3.485277|    0.104878|   -0.003440|
|         610|   -3.486091|    0.104841|   -0.003419|
|         611|   -3.486906|    0.104805|   -0.003398|
|         612|   -3.487720|    0.104768|   -0.003376|
|         613|   -3.488536|    0.104732|   -0.003353|
|         614|   -3.489352|    0.104695|   -0.003331|
|         615|   -3.490170|    0.104658|   -0.003308|
|         616|   -3.490988|    0.104622|   -0.003285|
|         617|   -3.491808|    0.104585|   -0.003261|
|         618|   -3.492628|    0.104549|   -0.003238|
|         619|   -3.493451|    0.104512|   -0.003214|
|         620|   -3.494275|    0.104475|   -0.003190|
|         621|   -3.495101|    0.104439|   -0.003166|
|         622|   -3.495930|    0.104403|   -0.003142|
|         623|   -3.496763|    0.104367|   -0.003117|
|         624|   -3.497598|    0.104331|   -0.003093|
|         625|   -3.498436|    0.104295|   -0.003068|
|         626|   -3.499277|    0.104259|   -0.003044|
|         627|   -3.500122|    0.104223|   -0.003019|
|         628|   -3.500970|    0.104188|   -0.002994|
|         629|   -3.501821|    0.104153|   -0.002970|
|         630|   -3.502676|    0.104118|   -0.002945|
|         631|   -3.503534|    0.104083|   -0.002920|
|         632|   -3.504397|    0.104048|   -0.002896|
|         633|   -3.505263|    0.104014|   -0.002871|
|         634|   -3.506134|    0.103980|   -0.002847|
|         635|   -3.507010|    0.103946|   -0.002822|
|         636|   -3.507891|    0.103912|   -0.002798|
|         637|   -3.508777|    0.103878|   -0.002774|
|         638|   -3.509669|    0.103844|   -0.002750|
|         639|   -3.510568|    0.103811|   -0.002726|
|         640|   -3.511474|    0.103778|   -0.002703|
|         641|   -3.512387|    0.103745|   -0.002679|
|         642|   -3.513308|    0.103712|   -0.002656|
|         643|   -3.514237|    0.103680|   -0.002633|
|         644|   -3.515175|    0.103647|   -0.002610|
|         645|   -3.516121|    0.103615|   -0.002587|
|         646|   -3.517075|    0.103583|   -0.002565|
|         647|   -3.518037|    0.103551|   -0.002542|
|         648|   -3.519008|    0.103519|   -0.002521|
|         649|   -3.519988|    0.103487|   -0.002499|
|         650|   -3.520977|    0.103456|   -0.002477|
|         651|   -3.521976|    0.103425|   -0.002456|
|         652|   -3.522983|    0.103393|   -0.002435|
|         653|   -3.524000|    0.103363|   -0.002415|
|         654|   -3.525027|    0.103332|   -0.002394|
|         655|   -3.526064|    0.103301|   -0.002374|
|         656|   -3.527112|    0.103271|   -0.002354|
|         657|   -3.528170|    0.103240|   -0.002335|
|         658|   -3.529239|    0.103210|   -0.002315|
|         659|   -3.530319|    0.103180|   -0.002297|
|         660|   -3.531411|    0.103150|   -0.002278|
|         661|   -3.532514|    0.103120|   -0.002260|
|         662|   -3.533629|    0.103091|   -0.002241|
|         663|   -3.534756|    0.103061|   -0.002224|
|         664|   -3.535895|    0.103032|   -0.002206|
|         665|   -3.537047|    0.103002|   -0.002189|
|         666|   -3.538211|    0.102973|   -0.002172|
|         667|   -3.539387|    0.102944|   -0.002156|
|         668|   -3.540575|    0.102915|   -0.002139|
|         669|   -3.541775|    0.102886|   -0.002123|
|         670|   -3.542987|    0.102858|   -0.002108|
|         671|   -3.544211|    0.102829|   -0.002092|
|         672|   -3.545447|    0.102801|   -0.002077|
|         673|   -3.546695|    0.102772|   -0.002063|
|         674|   -3.547954|    0.102744|   -0.002048|
|         675|   -3.549225|    0.102716|   -0.002034|
|         676|   -3.550507|    0.102688|   -0.002020|
|         677|   -3.551800|    0.102660|   -0.002006|
|         678|   -3.553104|    0.102632|   -0.001993|
|         679|   -3.554419|    0.102604|   -0.001979|
|         680|   -3.555744|    0.102577|   -0.001967|
|         681|   -3.557078|    0.102549|   -0.001954|
|         682|   -3.558422|    0.102522|   -0.001941|
|         683|   -3.559775|    0.102495|   -0.001929|
|         684|   -3.561136|    0.102468|   -0.001917|
|         685|   -3.562506|    0.102441|   -0.001906|
|         686|   -3.563884|    0.102414|   -0.001894|
|         687|   -3.565270|    0.102387|   -0.001883|
|         688|   -3.566664|    0.102361|   -0.001872|
|         689|   -3.568065|    0.102335|   -0.001861|
|         690|   -3.569471|    0.102308|   -0.001851|
|         691|   -3.570883|    0.102282|   -0.001840|
|         692|   -3.572301|    0.102256|   -0.001830|
|         693|   -3.573723|    0.102231|   -0.001820|
|         694|   -3.575149|    0.102205|   -0.001811|
|         695|   -3.576579|    0.102179|   -0.001801|
|         696|   -3.578012|    0.102154|   -0.001792|
|         697|   -3.579448|    0.102129|   -0.001783|
|         698|   -3.580886|    0.102104|   -0.001774|
|         699|   -3.582325|    0.102080|   -0.001765|
|         700|   -3.583766|    0.102055|   -0.001756|
|         701|   -3.585207|    0.102031|   -0.001748|
|         702|   -3.586648|    0.102007|   -0.001740|
|         703|   -3.588088|    0.101983|   -0.001732|
|         704|   -3.589528|    0.101959|   -0.001724|
|         705|   -3.590967|    0.101936|   -0.001716|
|         706|   -3.592404|    0.101913|   -0.001709|
|         707|   -3.593840|    0.101890|   -0.001701|
|         708|   -3.595273|    0.101868|   -0.001694|
|         709|   -3.596705|    0.101845|   -0.001687|
|         710|   -3.598133|    0.101823|   -0.001680|
|         711|   -3.599558|    0.101801|   -0.001673|
|         712|   -3.600980|    0.101780|   -0.001667|
|         713|   -3.602399|    0.101759|   -0.001660|
|         714|   -3.603814|    0.101738|   -0.001654|
|         715|   -3.605225|    0.101718|   -0.001648|
|         716|   -3.606633|    0.101697|   -0.001642|
|         717|   -3.608036|    0.101678|   -0.001636|
|         718|   -3.609436|    0.101658|   -0.001631|
|         719|   -3.610832|    0.101639|   -0.001625|
|         720|   -3.612223|    0.101620|   -0.001620|
|         721|   -3.613611|    0.101602|   -0.001615|
|         722|   -3.614995|    0.101584|   -0.001610|
|         723|   -3.616375|    0.101566|   -0.001605|
|         724|   -3.617752|    0.101549|   -0.001601|
|         725|   -3.619124|    0.101532|   -0.001596|
|         726|   -3.620493|    0.101515|   -0.001592|
|         727|   -3.621858|    0.101499|   -0.001588|
|         728|   -3.623219|    0.101483|   -0.001584|
|         729|   -3.624576|    0.101468|   -0.001580|
|         730|   -3.625930|    0.101453|   -0.001576|
|         731|   -3.627279|    0.101438|   -0.001573|
|         732|   -3.628625|    0.101424|   -0.001569|
|         733|   -3.629968|    0.101410|   -0.001566|
|         734|   -3.631307|    0.101397|   -0.001563|
|         735|   -3.632643|    0.101384|   -0.001560|
|         736|   -3.633977|    0.101372|   -0.001558|
|         737|   -3.635307|    0.101360|   -0.001555|
|         738|   -3.636636|    0.101348|   -0.001553|
|         739|   -3.637962|    0.101337|   -0.001551|
|         740|   -3.639285|    0.101326|   -0.001549|
|         741|   -3.640607|    0.101316|   -0.001547|
|         742|   -3.641928|    0.101306|   -0.001546|
|         743|   -3.643247|    0.101296|   -0.001544|
|         744|   -3.644565|    0.101287|   -0.001543|
|         745|   -3.645883|    0.101279|   -0.001542|
|         746|   -3.647200|    0.101271|   -0.001541|
|         747|   -3.648516|    0.101263|   -0.001541|
|         748|   -3.649832|    0.101256|   -0.001540|
|         749|   -3.651147|    0.101249|   -0.001540|
|         750|   -3.652462|    0.101243|   -0.001540|
+-----------------------------------------------------------------------+
|        File Writing Summary       |              Filename             |
+-----------------------------------------------------------------------+
|SU2 binary restart                 |restart_flow.dat                   |
|CSV file                           |surface_flow.csv                   |
+-----------------------------------------------------------------------+
+---------------------------------------------------+
|  Inner_Iter|    rms[Rho]|          CL|          CD|
+---------------------------------------------------+
|         751|   -3.653777|    0.101237|   -0.001540|
|         752|   -3.655092|    0.101232|   -0.001541|
|         753|   -3.656408|    0.101227|   -0.001541|
|         754|   -3.657725|    0.101223|   -0.001542|
|         755|   -3.659041|    0.101219|   -0.001543|
|         756|   -3.660359|    0.101215|   -0.001544|
|         757|   -3.661678|    0.101212|   -0.001545|
|         758|   -3.662997|    0.101209|   -0.001547|
|         759|   -3.664317|    0.101207|   -0.001549|
|         760|   -3.665639|    0.101205|   -0.001551|
|         761|   -3.666960|    0.101204|   -0.001553|
|         762|   -3.668282|    0.101203|   -0.001555|
|         763|   -3.669605|    0.101202|   -0.001558|
|         764|   -3.670928|    0.101202|   -0.001561|
|         765|   -3.672252|    0.101202|   -0.001563|
|         766|   -3.673576|    0.101203|   -0.001567|
|         767|   -3.674900|    0.101204|   -0.001570|
|         768|   -3.676225|    0.101205|   -0.001573|
|         769|   -3.677550|    0.101206|   -0.001577|
|         770|   -3.678875|    0.101208|   -0.001581|
|         771|   -3.680200|    0.101211|   -0.001585|
|         772|   -3.681524|    0.101213|   -0.001589|
|         773|   -3.682848|    0.101216|   -0.001594|
|         774|   -3.684171|    0.101219|   -0.001598|
|         775|   -3.685493|    0.101223|   -0.001603|
|         776|   -3.686814|    0.101227|   -0.001608|
|         777|   -3.688134|    0.101231|   -0.001613|
|         778|   -3.689452|    0.101235|   -0.001619|
|         779|   -3.690769|    0.101240|   -0.001624|
|         780|   -3.692085|    0.101245|   -0.001630|
|         781|   -3.693398|    0.101250|   -0.001636|
|         782|   -3.694710|    0.101255|   -0.001642|
|         783|   -3.696020|    0.101261|   -0.001648|
|         784|   -3.697327|    0.101267|   -0.001654|
|         785|   -3.698632|    0.101273|   -0.001660|
|         786|   -3.699936|    0.101279|   -0.001667|
|         787|   -3.701237|    0.101285|   -0.001674|
|         788|   -3.702535|    0.101292|   -0.001681|
|         789|   -3.703831|    0.101299|   -0.001688|
|         790|   -3.705124|    0.101306|   -0.001695|
|         791|   -3.706413|    0.101313|   -0.001702|
|         792|   -3.707700|    0.101320|   -0.001709|
|         793|   -3.708983|    0.101327|   -0.001717|
|         794|   -3.710263|    0.101335|   -0.001724|
|         795|   -3.711538|    0.101342|   -0.001732|
|         796|   -3.712810|    0.101350|   -0.001740|
|         797|   -3.714078|    0.101358|   -0.001748|
|         798|   -3.715342|    0.101366|   -0.001756|
|         799|   -3.716601|    0.101374|   -0.001764|
|         800|   -3.717857|    0.101382|   -0.001772|
|         801|   -3.719108|    0.101390|   -0.001780|
|         802|   -3.720355|    0.101399|   -0.001789|
|         803|   -3.721598|    0.101407|   -0.001797|
|         804|   -3.722836|    0.101416|   -0.001805|
|         805|   -3.724069|    0.101424|   -0.001814|
|         806|   -3.725298|    0.101433|   -0.001822|
|         807|   -3.726523|    0.101442|   -0.001831|
|         808|   -3.727743|    0.101451|   -0.001840|
|         809|   -3.728958|    0.101459|   -0.001849|
|         810|   -3.730168|    0.101468|   -0.001857|
|         811|   -3.731373|    0.101477|   -0.001866|
|         812|   -3.732573|    0.101487|   -0.001875|
|         813|   -3.733767|    0.101496|   -0.001884|
|         814|   -3.734957|    0.101505|   -0.001893|
|         815|   -3.736140|    0.101514|   -0.001902|
|         816|   -3.737319|    0.101523|   -0.001911|
|         817|   -3.738491|    0.101533|   -0.001920|
|         818|   -3.739658|    0.101542|   -0.001929|
|         819|   -3.740818|    0.101552|   -0.001937|
|         820|   -3.741972|    0.101561|   -0.001946|
|         821|   -3.743121|    0.101571|   -0.001955|
|         822|   -3.744262|    0.101580|   -0.001964|
|         823|   -3.745397|    0.101590|   -0.001973|
|         824|   -3.746526|    0.101599|   -0.001982|
|         825|   -3.747647|    0.101609|   -0.001991|
|         826|   -3.748761|    0.101619|   -0.002000|
|         827|   -3.749868|    0.101629|   -0.002009|
|         828|   -3.750967|    0.101638|   -0.002018|
|         829|   -3.752058|    0.101648|   -0.002027|
|         830|   -3.753142|    0.101658|   -0.002035|
|         831|   -3.754217|    0.101668|   -0.002044|
|         832|   -3.755285|    0.101678|   -0.002053|
|         833|   -3.756344|    0.101689|   -0.002062|
|         834|   -3.757396|    0.101699|   -0.002070|
|         835|   -3.758438|    0.101709|   -0.002079|
|         836|   -3.759473|    0.101720|   -0.002087|
|         837|   -3.760498|    0.101730|   -0.002096|
|         838|   -3.761515|    0.101741|   -0.002104|
|         839|   -3.762523|    0.101751|   -0.002113|
|         840|   -3.763523|    0.101762|   -0.002121|
|         841|   -3.764513|    0.101773|   -0.002130|
|         842|   -3.765495|    0.101784|   -0.002138|
|         843|   -3.766467|    0.101795|   -0.002146|
|         844|   -3.767430|    0.101807|   -0.002154|
|         845|   -3.768384|    0.101818|   -0.002162|
|         846|   -3.769329|    0.101830|   -0.002170|
|         847|   -3.770264|    0.101841|   -0.002178|
|         848|   -3.771191|    0.101853|   -0.002186|
|         849|   -3.772108|    0.101865|   -0.002194|
|         850|   -3.773015|    0.101877|   -0.002202|
|         851|   -3.773913|    0.101890|   -0.002210|
|         852|   -3.774802|    0.101902|   -0.002218|
|         853|   -3.775681|    0.101915|   -0.002225|
|         854|   -3.776551|    0.101928|   -0.002233|
|         855|   -3.777412|    0.101941|   -0.002240|
|         856|   -3.778263|    0.101954|   -0.002248|
|         857|   -3.779104|    0.101967|   -0.002255|
|         858|   -3.779937|    0.101981|   -0.002263|
|         859|   -3.780760|    0.101995|   -0.002270|
|         860|   -3.781573|    0.102009|   -0.002277|
|         861|   -3.782378|    0.102023|   -0.002284|
|         862|   -3.783174|    0.102037|   -0.002291|
|         863|   -3.783960|    0.102052|   -0.002299|
|         864|   -3.784738|    0.102067|   -0.002306|
|         865|   -3.785507|    0.102082|   -0.002313|
|         866|   -3.786267|    0.102097|   -0.002319|
|         867|   -3.787018|    0.102113|   -0.002326|
|         868|   -3.787761|    0.102129|   -0.002333|
|         869|   -3.788496|    0.102145|   -0.002340|
|         870|   -3.789223|    0.102161|   -0.002346|
|         871|   -3.789942|    0.102178|   -0.002353|
|         872|   -3.790653|    0.102194|   -0.002360|
|         873|   -3.791357|    0.102211|   -0.002366|
|         874|   -3.792053|    0.102229|   -0.002373|
|         875|   -3.792741|    0.102246|   -0.002379|
|         876|   -3.793422|    0.102264|   -0.002385|
|         877|   -3.794097|    0.102282|   -0.002392|
|         878|   -3.794764|    0.102300|   -0.002398|
|         879|   -3.795424|    0.102318|   -0.002404|
|         880|   -3.796077|    0.102337|   -0.002410|
|         881|   -3.796724|    0.102356|   -0.002416|
|         882|   -3.797365|    0.102375|   -0.002422|
|         883|   -3.797999|    0.102394|   -0.002429|
|         884|   -3.798628|    0.102413|   -0.002434|
|         885|   -3.799251|    0.102433|   -0.002440|
|         886|   -3.799868|    0.102453|   -0.002446|
|         887|   -3.800480|    0.102473|   -0.002452|
|         888|   -3.801087|    0.102493|   -0.002458|
|         889|   -3.801688|    0.102514|   -0.002464|
|         890|   -3.802285|    0.102534|   -0.002469|
|         891|   -3.802877|    0.102555|   -0.002475|
|         892|   -3.803463|    0.102576|   -0.002481|
|         893|   -3.804046|    0.102597|   -0.002486|
|         894|   -3.804623|    0.102619|   -0.002492|
|         895|   -3.805196|    0.102640|   -0.002498|
|         896|   -3.805764|    0.102662|   -0.002503|
|         897|   -3.806329|    0.102684|   -0.002509|
|         898|   -3.806889|    0.102706|   -0.002514|
|         899|   -3.807444|    0.102728|   -0.002519|
|         900|   -3.807996|    0.102750|   -0.002525|
|         901|   -3.808544|    0.102772|   -0.002530|
|         902|   -3.809089|    0.102795|   -0.002535|
|         903|   -3.809630|    0.102817|   -0.002541|
|         904|   -3.810167|    0.102840|   -0.002546|
|         905|   -3.810701|    0.102863|   -0.002551|
|         906|   -3.811231|    0.102885|   -0.002556|
|         907|   -3.811758|    0.102908|   -0.002561|
|         908|   -3.812282|    0.102931|   -0.002566|
|         909|   -3.812803|    0.102954|   -0.002571|
|         910|   -3.813321|    0.102977|   -0.002576|
|         911|   -3.813836|    0.103000|   -0.002581|
|         912|   -3.814348|    0.103023|   -0.002586|
|         913|   -3.814857|    0.103047|   -0.002591|
|         914|   -3.815364|    0.103070|   -0.002596|
|         915|   -3.815869|    0.103093|   -0.002601|
|         916|   -3.816371|    0.103116|   -0.002606|
|         917|   -3.816870|    0.103139|   -0.002610|
|         918|   -3.817367|    0.103162|   -0.002615|
|         919|   -3.817861|    0.103185|   -0.002620|
|         920|   -3.818353|    0.103208|   -0.002625|
|         921|   -3.818843|    0.103231|   -0.002629|
|         922|   -3.819330|    0.103254|   -0.002634|
|         923|   -3.819816|    0.103277|   -0.002639|
|         924|   -3.820299|    0.103300|   -0.002643|
|         925|   -3.820780|    0.103322|   -0.002648|
|         926|   -3.821258|    0.103345|   -0.002652|
|         927|   -3.821735|    0.103367|   -0.002657|
|         928|   -3.822209|    0.103390|   -0.002661|
|         929|   -3.822681|    0.103412|   -0.002665|
|         930|   -3.823150|    0.103434|   -0.002670|
|         931|   -3.823617|    0.103457|   -0.002674|
|         932|   -3.824082|    0.103479|   -0.002679|
|         933|   -3.824544|    0.103500|   -0.002683|
|         934|   -3.825005|    0.103522|   -0.002687|
|         935|   -3.825463|    0.103544|   -0.002691|
|         936|   -3.825919|    0.103565|   -0.002696|
|         937|   -3.826373|    0.103587|   -0.002700|
|         938|   -3.826824|    0.103608|   -0.002704|
|         939|   -3.827274|    0.103629|   -0.002708|
|         940|   -3.827721|    0.103650|   -0.002712|
|         941|   -3.828167|    0.103671|   -0.002716|
|         942|   -3.828611|    0.103692|   -0.002720|
|         943|   -3.829053|    0.103713|   -0.002724|
|         944|   -3.829494|    0.103733|   -0.002728|
|         945|   -3.829934|    0.103753|   -0.002732|
|         946|   -3.830372|    0.103774|   -0.002736|
|         947|   -3.830809|    0.103794|   -0.002740|
|         948|   -3.831244|    0.103814|   -0.002744|
|         949|   -3.831678|    0.103833|   -0.002748|
|         950|   -3.832110|    0.103853|   -0.002752|
|         951|   -3.832540|    0.103873|   -0.002756|
|         952|   -3.832969|    0.103892|   -0.002760|
|         953|   -3.833397|    0.103911|   -0.002764|
|         954|   -3.833823|    0.103931|   -0.002768|
|         955|   -3.834247|    0.103950|   -0.002771|
|         956|   -3.834669|    0.103969|   -0.002775|
|         957|   -3.835089|    0.103987|   -0.002779|
|         958|   -3.835508|    0.104006|   -0.002783|
|         959|   -3.835925|    0.104025|   -0.002787|
|         960|   -3.836341|    0.104043|   -0.002790|
|         961|   -3.836755|    0.104061|   -0.002794|
|         962|   -3.837167|    0.104079|   -0.002798|
|         963|   -3.837578|    0.104098|   -0.002802|
|         964|   -3.837987|    0.104116|   -0.002805|
|         965|   -3.838395|    0.104134|   -0.002809|
|         966|   -3.838802|    0.104151|   -0.002813|
|         967|   -3.839208|    0.104169|   -0.002816|
|         968|   -3.839612|    0.104187|   -0.002820|
|         969|   -3.840015|    0.104204|   -0.002824|
|         970|   -3.840416|    0.104222|   -0.002827|
|         971|   -3.840816|    0.104239|   -0.002831|
|         972|   -3.841215|    0.104257|   -0.002835|
|         973|   -3.841613|    0.104274|   -0.002838|
|         974|   -3.842011|    0.104292|   -0.002842|
|         975|   -3.842407|    0.104309|   -0.002846|
|         976|   -3.842804|    0.104326|   -0.002849|
|         977|   -3.843199|    0.104343|   -0.002853|
|         978|   -3.843593|    0.104361|   -0.002857|
|         979|   -3.843986|    0.104378|   -0.002860|
|         980|   -3.844377|    0.104395|   -0.002864|
|         981|   -3.844767|    0.104412|   -0.002868|
|         982|   -3.845157|    0.104429|   -0.002871|
|         983|   -3.845546|    0.104446|   -0.002875|
|         984|   -3.845933|    0.104464|   -0.002878|
|         985|   -3.846319|    0.104481|   -0.002882|
|         986|   -3.846705|    0.104498|   -0.002886|
|         987|   -3.847091|    0.104515|   -0.002889|
|         988|   -3.847476|    0.104532|   -0.002893|
|         989|   -3.847860|    0.104550|   -0.002897|
|         990|   -3.848244|    0.104567|   -0.002900|
|         991|   -3.848628|    0.104584|   -0.002904|
|         992|   -3.849011|    0.104602|   -0.002908|
|         993|   -3.849395|    0.104619|   -0.002911|
|         994|   -3.849779|    0.104636|   -0.002915|
|         995|   -3.850162|    0.104654|   -0.002919|
|         996|   -3.850546|    0.104672|   -0.002922|
|         997|   -3.850929|    0.104689|   -0.002926|
|         998|   -3.851313|    0.104707|   -0.002930|
|         999|   -3.851696|    0.104725|   -0.002934|
|        1000|   -3.852081|    0.104743|   -0.002937|
+-----------------------------------------------------------------------+
|        File Writing Summary       |              Filename             |
+-----------------------------------------------------------------------+
|SU2 binary restart                 |restart_flow.dat                   |
|CSV file                           |surface_flow.csv                   |
+-----------------------------------------------------------------------+
+---------------------------------------------------+
|  Inner_Iter|    rms[Rho]|          CL|          CD|
+---------------------------------------------------+
|        1001|   -3.852465|    0.104760|   -0.002941|
|        1002|   -3.852850|    0.104778|   -0.002945|
|        1003|   -3.853237|    0.104797|   -0.002948|
|        1004|   -3.853624|    0.104815|   -0.002952|
|        1005|   -3.854012|    0.104833|   -0.002956|
|        1006|   -3.854401|    0.104851|   -0.002959|
|        1007|   -3.854790|    0.104870|   -0.002963|
|        1008|   -3.855180|    0.104888|   -0.002967|
|        1009|   -3.855571|    0.104907|   -0.002970|
|        1010|   -3.855965|    0.104926|   -0.002974|
|        1011|   -3.856361|    0.104944|   -0.002978|
|        1012|   -3.856759|    0.104963|   -0.002981|
|        1013|   -3.857159|    0.104982|   -0.002985|
|        1014|   -3.857561|    0.105001|   -0.002988|
|        1015|   -3.857966|    0.105020|   -0.002992|
|        1016|   -3.858373|    0.105040|   -0.002996|
|        1017|   -3.858782|    0.105059|   -0.002999|
|        1018|   -3.859194|    0.105078|   -0.003003|
|        1019|   -3.859608|    0.105098|   -0.003006|
|        1020|   -3.860027|    0.105117|   -0.003010|
|        1021|   -3.860449|    0.105137|   -0.003014|
|        1022|   -3.860873|    0.105157|   -0.003017|
|        1023|   -3.861301|    0.105177|   -0.003021|
|        1024|   -3.861731|    0.105197|   -0.003024|
|        1025|   -3.862166|    0.105216|   -0.003028|
|        1026|   -3.862603|    0.105236|   -0.003031|
|        1027|   -3.863043|    0.105257|   -0.003034|
|        1028|   -3.863485|    0.105277|   -0.003038|
|        1029|   -3.863930|    0.105297|   -0.003041|
|        1030|   -3.864376|    0.105317|   -0.003044|
|        1031|   -3.864825|    0.105337|   -0.003048|
|        1032|   -3.865278|    0.105358|   -0.003051|
|        1033|   -3.865734|    0.105378|   -0.003054|
|        1034|   -3.866192|    0.105398|   -0.003058|
|        1035|   -3.866654|    0.105419|   -0.003061|
|        1036|   -3.867119|    0.105439|   -0.003064|
|        1037|   -3.867587|    0.105459|   -0.003067|
|        1038|   -3.868057|    0.105480|   -0.003070|
|        1039|   -3.868532|    0.105500|   -0.003073|
|        1040|   -3.869011|    0.105521|   -0.003076|
|        1041|   -3.869496|    0.105541|   -0.003079|
|        1042|   -3.869985|    0.105561|   -0.003082|
|        1043|   -3.870478|    0.105582|   -0.003085|
|        1044|   -3.870975|    0.105602|   -0.003088|
|        1045|   -3.871475|    0.105623|   -0.003090|
|        1046|   -3.871979|    0.105643|   -0.003093|
|        1047|   -3.872487|    0.105663|   -0.003096|
|        1048|   -3.872998|    0.105684|   -0.003098|
|        1049|   -3.873514|    0.105704|   -0.003101|
|        1050|   -3.874033|    0.105724|   -0.003104|
|        1051|   -3.874556|    0.105744|   -0.003106|
|        1052|   -3.875083|    0.105764|   -0.003108|
|        1053|   -3.875613|    0.105784|   -0.003111|
|        1054|   -3.876147|    0.105804|   -0.003113|
|        1055|   -3.876686|    0.105824|   -0.003115|
|        1056|   -3.877229|    0.105844|   -0.003117|
|        1057|   -3.877777|    0.105864|   -0.003120|
|        1058|   -3.878328|    0.105883|   -0.003122|
|        1059|   -3.878884|    0.105903|   -0.003124|
|        1060|   -3.879444|    0.105922|   -0.003125|
|        1061|   -3.880009|    0.105941|   -0.003127|
|        1062|   -3.880579|    0.105961|   -0.003129|
|        1063|   -3.881155|    0.105980|   -0.003131|
|        1064|   -3.881735|    0.105998|   -0.003133|
|        1065|   -3.882319|    0.106017|   -0.003134|
|        1066|   -3.882909|    0.106036|   -0.003136|
|        1067|   -3.883503|    0.106054|   -0.003137|
|        1068|   -3.884102|    0.106072|   -0.003138|
|        1069|   -3.884708|    0.106090|   -0.003140|
|        1070|   -3.885318|    0.106108|   -0.003141|
|        1071|   -3.885934|    0.106126|   -0.003142|
|        1072|   -3.886554|    0.106143|   -0.003143|
|        1073|   -3.887180|    0.106161|   -0.003144|
|        1074|   -3.887811|    0.106178|   -0.003145|
|        1075|   -3.888446|    0.106195|   -0.003146|
|        1076|   -3.889086|    0.106211|   -0.003147|
|        1077|   -3.889731|    0.106228|   -0.003148|
|        1078|   -3.890379|    0.106244|   -0.003148|
|        1079|   -3.891030|    0.106260|   -0.003149|
|        1080|   -3.891684|    0.106276|   -0.003149|
|        1081|   -3.892341|    0.106291|   -0.003150|
|        1082|   -3.893002|    0.106306|   -0.003150|
|        1083|   -3.893667|    0.106321|   -0.003150|
|        1084|   -3.894337|    0.106336|   -0.003151|
|        1085|   -3.895012|    0.106351|   -0.003151|
|        1086|   -3.895693|    0.106365|   -0.003151|
|        1087|   -3.896378|    0.106378|   -0.003151|
|        1088|   -3.897070|    0.106392|   -0.003151|
|        1089|   -3.897767|    0.106405|   -0.003150|
|        1090|   -3.898469|    0.106418|   -0.003150|
|        1091|   -3.899178|    0.106431|   -0.003150|
|        1092|   -3.899892|    0.106443|   -0.003149|
|        1093|   -3.900612|    0.106455|   -0.003149|
|        1094|   -3.901339|    0.106467|   -0.003148|
|        1095|   -3.902073|    0.106478|   -0.003148|
|        1096|   -3.902814|    0.106489|   -0.003147|
|        1097|   -3.903560|    0.106499|   -0.003146|
|        1098|   -3.904312|    0.106510|   -0.003145|
|        1099|   -3.905070|    0.106520|   -0.003145|
|        1100|   -3.905833|    0.106529|   -0.003144|
|        1101|   -3.906602|    0.106538|   -0.003143|
|        1102|   -3.907377|    0.106547|   -0.003141|
|        1103|   -3.908157|    0.106555|   -0.003140|
|        1104|   -3.908943|    0.106563|   -0.003139|
|        1105|   -3.909735|    0.106571|   -0.003138|
|        1106|   -3.910533|    0.106578|   -0.003136|
|        1107|   -3.911337|    0.106585|   -0.003135|
|        1108|   -3.912147|    0.106591|   -0.003133|
|        1109|   -3.912963|    0.106597|   -0.003132|
|        1110|   -3.913785|    0.106603|   -0.003130|
|        1111|   -3.914612|    0.106608|   -0.003129|
|        1112|   -3.915445|    0.106613|   -0.003127|
|        1113|   -3.916281|    0.106617|   -0.003125|
|        1114|   -3.917123|    0.106621|   -0.003123|
|        1115|   -3.917970|    0.106624|   -0.003121|
|        1116|   -3.918821|    0.106627|   -0.003119|
|        1117|   -3.919677|    0.106629|   -0.003117|
|        1118|   -3.920535|    0.106631|   -0.003115|
|        1119|   -3.921400|    0.106633|   -0.003113|
|        1120|   -3.922269|    0.106634|   -0.003111|
|        1121|   -3.923144|    0.106634|   -0.003109|
|        1122|   -3.924023|    0.106634|   -0.003107|
|        1123|   -3.924906|    0.106634|   -0.003104|
|        1124|   -3.925790|    0.106633|   -0.003102|
|        1125|   -3.926677|    0.106631|   -0.003099|
|        1126|   -3.927567|    0.106629|   -0.003097|
|        1127|   -3.928461|    0.106627|   -0.003095|
|        1128|   -3.929357|    0.106624|   -0.003092|
|        1129|   -3.930256|    0.106621|   -0.003090|
|        1130|   -3.931158|    0.106617|   -0.003087|
|        1131|   -3.932063|    0.106612|   -0.003084|
|        1132|   -3.932971|    0.106607|   -0.003082|
|        1133|   -3.933881|    0.106602|   -0.003079|
|        1134|   -3.934792|    0.106596|   -0.003076|
|        1135|   -3.935706|    0.106589|   -0.003074|
|        1136|   -3.936623|    0.106582|   -0.003071|
|        1137|   -3.937543|    0.106575|   -0.003068|
|        1138|   -3.938466|    0.106567|   -0.003065|
|        1139|   -3.939391|    0.106558|   -0.003062|
|        1140|   -3.940320|    0.106549|   -0.003059|
|        1141|   -3.941251|    0.106540|   -0.003056|
|        1142|   -3.942187|    0.106530|   -0.003054|
|        1143|   -3.943126|    0.106519|   -0.003051|
|        1144|   -3.944068|    0.106508|   -0.003048|
|        1145|   -3.945014|    0.106496|   -0.003045|
|        1146|   -3.945963|    0.106484|   -0.003042|
|        1147|   -3.946916|    0.106471|   -0.003039|
|        1148|   -3.947873|    0.106458|   -0.003036|
|        1149|   -3.948832|    0.106445|   -0.003033|
|        1150|   -3.949794|    0.106430|   -0.003030|
|        1151|   -3.950759|    0.106416|   -0.003027|
|        1152|   -3.951726|    0.106400|   -0.003023|
|        1153|   -3.952695|    0.106385|   -0.003020|
|        1154|   -3.953664|    0.106368|   -0.003017|
|        1155|   -3.954633|    0.106352|   -0.003014|
|        1156|   -3.955603|    0.106334|   -0.003011|
|        1157|   -3.956573|    0.106317|   -0.003008|
|        1158|   -3.957545|    0.106298|   -0.003005|
|        1159|   -3.958516|    0.106280|   -0.003002|
|        1160|   -3.959488|    0.106260|   -0.002999|
|        1161|   -3.960460|    0.106241|   -0.002996|
|        1162|   -3.961433|    0.106221|   -0.002993|
|        1163|   -3.962407|    0.106200|   -0.002990|
|        1164|   -3.963381|    0.106179|   -0.002987|
|        1165|   -3.964357|    0.106157|   -0.002984|
|        1166|   -3.965333|    0.106135|   -0.002981|
|        1167|   -3.966311|    0.106112|   -0.002978|
|        1168|   -3.967290|    0.106089|   -0.002975|
|        1169|   -3.968269|    0.106065|   -0.002972|
|        1170|   -3.969251|    0.106041|   -0.002969|
|        1171|   -3.970234|    0.106017|   -0.002966|
|        1172|   -3.971218|    0.105992|   -0.002963|
|        1173|   -3.972201|    0.105967|   -0.002960|
|        1174|   -3.973184|    0.105941|   -0.002957|
|        1175|   -3.974166|    0.105914|   -0.002954|
|        1176|   -3.975147|    0.105888|   -0.002951|
|        1177|   -3.976128|    0.105861|   -0.002948|
|        1178|   -3.977109|    0.105833|   -0.002945|
|        1179|   -3.978092|    0.105805|   -0.002943|
|        1180|   -3.979075|    0.105777|   -0.002940|
|        1181|   -3.980060|    0.105748|   -0.002937|
|        1182|   -3.981046|    0.105719|   -0.002934|
|        1183|   -3.982033|    0.105690|   -0.002932|
|        1184|   -3.983022|    0.105660|   -0.002929|
|        1185|   -3.984012|    0.105630|   -0.002926|
|        1186|   -3.985004|    0.105599|   -0.002924|
|        1187|   -3.985996|    0.105568|   -0.002921|
|        1188|   -3.986990|    0.105537|   -0.002919|
|        1189|   -3.987985|    0.105505|   -0.002916|
|        1190|   -3.988980|    0.105473|   -0.002914|
|        1191|   -3.989975|    0.105441|   -0.002911|
|        1192|   -3.990971|    0.105408|   -0.002909|
|        1193|   -3.991969|    0.105375|   -0.002906|
|        1194|   -3.992966|    0.105342|   -0.002904|
|        1195|   -3.993962|    0.105309|   -0.002902|
|        1196|   -3.994957|    0.105275|   -0.002900|
|        1197|   -3.995951|    0.105241|   -0.002897|
|        1198|   -3.996944|    0.105206|   -0.002895|
|        1199|   -3.997936|    0.105172|   -0.002893|
|        1200|   -3.998930|    0.105137|   -0.002891|
|        1201|   -3.999923|    0.105101|   -0.002889|
|        1202|   -4.000918|    0.105066|   -0.002887|
|        1203|   -4.001912|    0.105030|   -0.002885|
|        1204|   -4.002907|    0.104994|   -0.002883|
|        1205|   -4.003902|    0.104958|   -0.002881|
|        1206|   -4.004897|    0.104922|   -0.002879|
|        1207|   -4.005892|    0.104886|   -0.002877|
|        1208|   -4.006886|    0.104849|   -0.002876|
|        1209|   -4.007880|    0.104812|   -0.002874|
|        1210|   -4.008873|    0.104775|   -0.002872|
|        1211|   -4.009866|    0.104738|   -0.002871|
|        1212|   -4.010857|    0.104701|   -0.002869|
|        1213|   -4.011849|    0.104663|   -0.002867|
|        1214|   -4.012841|    0.104626|   -0.002866|
|        1215|   -4.013833|    0.104588|   -0.002865|
|        1216|   -4.014827|    0.104550|   -0.002863|
|        1217|   -4.015822|    0.104512|   -0.002862|
|        1218|   -4.016818|    0.104474|   -0.002860|
|        1219|   -4.017815|    0.104436|   -0.002859|
|        1220|   -4.018813|    0.104398|   -0.002858|
|        1221|   -4.019811|    0.104359|   -0.002857|
|        1222|   -4.020810|    0.104321|   -0.002856|
|        1223|   -4.021808|    0.104282|   -0.002854|
|        1224|   -4.022806|    0.104244|   -0.002853|
|        1225|   -4.023804|    0.104205|   -0.002852|
|        1226|   -4.024801|    0.104167|   -0.002851|
|        1227|   -4.025798|    0.104128|   -0.002850|
|        1228|   -4.026793|    0.104089|   -0.002850|
|        1229|   -4.027787|    0.104050|   -0.002849|
|        1230|   -4.028780|    0.104012|   -0.002848|
|        1231|   -4.029771|    0.103973|   -0.002847|
|        1232|   -4.030760|    0.103934|   -0.002846|
|        1233|   -4.031749|    0.103895|   -0.002846|
|        1234|   -4.032739|    0.103856|   -0.002845|
|        1235|   -4.033729|    0.103818|   -0.002844|
|        1236|   -4.034719|    0.103779|   -0.002844|
|        1237|   -4.035708|    0.103740|   -0.002843|
[...]
|        2171|   -4.822341|    0.103630|   -0.002807|
|        2172|   -4.822826|    0.103626|   -0.002806|
|        2173|   -4.823312|    0.103623|   -0.002805|
|        2174|   -4.823797|    0.103620|   -0.002803|
|        2175|   -4.824282|    0.103617|   -0.002802|
|        2176|   -4.824768|    0.103614|   -0.002801|
|        2177|   -4.825253|    0.103610|   -0.002800|
|        2178|   -4.825738|    0.103607|   -0.002799|
|        2179|   -4.826223|    0.103604|   -0.002798|
|        2180|   -4.826708|    0.103601|   -0.002796|
|        2181|   -4.827193|    0.103598|   -0.002795|
|        2182|   -4.827678|    0.103594|   -0.002794|
|        2183|   -4.828163|    0.103591|   -0.002793|
|        2184|   -4.828649|    0.103588|   -0.002792|
|        2185|   -4.829135|    0.103585|   -0.002791|
|        2186|   -4.829622|    0.103581|   -0.002790|
|        2187|   -4.830109|    0.103578|   -0.002789|
|        2188|   -4.830596|    0.103575|   -0.002787|
|        2189|   -4.831084|    0.103572|   -0.002786|
|        2190|   -4.831573|    0.103569|   -0.002785|
|        2191|   -4.832061|    0.103566|   -0.002784|
|        2192|   -4.832551|    0.103563|   -0.002783|
|        2193|   -4.833041|    0.103559|   -0.002782|
|        2194|   -4.833531|    0.103556|   -0.002781|
|        2195|   -4.834023|    0.103553|   -0.002780|
|        2196|   -4.834515|    0.103550|   -0.002779|
|        2197|   -4.835008|    0.103547|   -0.002778|
|        2198|   -4.835502|    0.103544|   -0.002777|
|        2199|   -4.835998|    0.103541|   -0.002776|
|        2200|   -4.836494|    0.103538|   -0.002775|
|        2201|   -4.836993|    0.103535|   -0.002774|
|        2202|   -4.837492|    0.103532|   -0.002773|
|        2203|   -4.837993|    0.103529|   -0.002772|
|        2204|   -4.838496|    0.103526|   -0.002772|
|        2205|   -4.839000|    0.103523|   -0.002771|
|        2206|   -4.839506|    0.103520|   -0.002770|
|        2207|   -4.840014|    0.103517|   -0.002769|
|        2208|   -4.840523|    0.103514|   -0.002768|
|        2209|   -4.841035|    0.103512|   -0.002767|
|        2210|   -4.841549|    0.103509|   -0.002766|
|        2211|   -4.842064|    0.103506|   -0.002765|
|        2212|   -4.842582|    0.103503|   -0.002765|
|        2213|   -4.843102|    0.103500|   -0.002764|
|        2214|   -4.843625|    0.103497|   -0.002763|
|        2215|   -4.844150|    0.103495|   -0.002762|
|        2216|   -4.844678|    0.103492|   -0.002762|
|        2217|   -4.845208|    0.103489|   -0.002761|
|        2218|   -4.845741|    0.103486|   -0.002760|
|        2219|   -4.846277|    0.103484|   -0.002759|
|        2220|   -4.846815|    0.103481|   -0.002759|
|        2221|   -4.847357|    0.103478|   -0.002758|
|        2222|   -4.847901|    0.103476|   -0.002757|
|        2223|   -4.848448|    0.103473|   -0.002756|
|        2224|   -4.848999|    0.103471|   -0.002756|
|        2225|   -4.849552|    0.103468|   -0.002755|
|        2226|   -4.850109|    0.103465|   -0.002755|
|        2227|   -4.850669|    0.103463|   -0.002754|
|        2228|   -4.851232|    0.103460|   -0.002753|
|        2229|   -4.851798|    0.103458|   -0.002753|
|        2230|   -4.852368|    0.103455|   -0.002752|
|        2231|   -4.852941|    0.103453|   -0.002751|
|        2232|   -4.853518|    0.103450|   -0.002751|
|        2233|   -4.854098|    0.103448|   -0.002750|
|        2234|   -4.854681|    0.103445|   -0.002750|
|        2235|   -4.855268|    0.103443|   -0.002749|
|        2236|   -4.855858|    0.103440|   -0.002749|
|        2237|   -4.856452|    0.103438|   -0.002748|
|        2238|   -4.857049|    0.103436|   -0.002748|
|        2239|   -4.857650|    0.103433|   -0.002747|
|        2240|   -4.858254|    0.103431|   -0.002747|
|        2241|   -4.858862|    0.103428|   -0.002746|
|        2242|   -4.859473|    0.103426|   -0.002746|
|        2243|   -4.860088|    0.103424|   -0.002745|
|        2244|   -4.860707|    0.103421|   -0.002745|
|        2245|   -4.861329|    0.103419|   -0.002745|
|        2246|   -4.861954|    0.103417|   -0.002744|
|        2247|   -4.862584|    0.103414|   -0.002744|
|        2248|   -4.863216|    0.103412|   -0.002743|
|        2249|   -4.863853|    0.103410|   -0.002743|
|        2250|   -4.864493|    0.103407|   -0.002743|
+-----------------------------------------------------------------------+
|        File Writing Summary       |              Filename             |
+-----------------------------------------------------------------------+
|SU2 binary restart                 |restart_flow.dat                   |
|CSV file                           |surface_flow.csv                   |
+-----------------------------------------------------------------------+
+---------------------------------------------------+
|  Inner_Iter|    rms[Rho]|          CL|          CD|
+---------------------------------------------------+
|        2251|   -4.865137|    0.103405|   -0.002742|
|        2252|   -4.865785|    0.103403|   -0.002742|
|        2253|   -4.866436|    0.103401|   -0.002742|
|        2254|   -4.867090|    0.103398|   -0.002741|
|        2255|   -4.867747|    0.103396|   -0.002741|
|        2256|   -4.868408|    0.103394|   -0.002741|
|        2257|   -4.869072|    0.103391|   -0.002741|
|        2258|   -4.869739|    0.103389|   -0.002740|
|        2259|   -4.870410|    0.103387|   -0.002740|
|        2260|   -4.871083|    0.103385|   -0.002740|
|        2261|   -4.871760|    0.103382|   -0.002740|
|        2262|   -4.872439|    0.103380|   -0.002739|
|        2263|   -4.873122|    0.103378|   -0.002739|
|        2264|   -4.873807|    0.103376|   -0.002739|
|        2265|   -4.874494|    0.103373|   -0.002739|
|        2266|   -4.875185|    0.103371|   -0.002739|
|        2267|   -4.875878|    0.103369|   -0.002739|
|        2268|   -4.876573|    0.103367|   -0.002738|
|        2269|   -4.877271|    0.103364|   -0.002738|
|        2270|   -4.877971|    0.103362|   -0.002738|
|        2271|   -4.878673|    0.103360|   -0.002738|
|        2272|   -4.879378|    0.103358|   -0.002738|
|        2273|   -4.880085|    0.103355|   -0.002738|
|        2274|   -4.880794|    0.103353|   -0.002738|
|        2275|   -4.881505|    0.103351|   -0.002738|
|        2276|   -4.882218|    0.103349|   -0.002738|
|        2277|   -4.882933|    0.103346|   -0.002738|
|        2278|   -4.883649|    0.103344|   -0.002738|
|        2279|   -4.884367|    0.103342|   -0.002738|
|        2280|   -4.885087|    0.103340|   -0.002738|
|        2281|   -4.885808|    0.103337|   -0.002738|
|        2282|   -4.886530|    0.103335|   -0.002738|
|        2283|   -4.887255|    0.103333|   -0.002738|
|        2284|   -4.887981|    0.103330|   -0.002738|
|        2285|   -4.888708|    0.103328|   -0.002738|
|        2286|   -4.889436|    0.103326|   -0.002738|
|        2287|   -4.890166|    0.103324|   -0.002738|
|        2288|   -4.890896|    0.103321|   -0.002738|
|        2289|   -4.891628|    0.103319|   -0.002738|
|        2290|   -4.892360|    0.103317|   -0.002738|
|        2291|   -4.893093|    0.103314|   -0.002738|
|        2292|   -4.893827|    0.103312|   -0.002738|
|        2293|   -4.894561|    0.103310|   -0.002738|
|        2294|   -4.895295|    0.103307|   -0.002739|
|        2295|   -4.896031|    0.103305|   -0.002739|
|        2296|   -4.896766|    0.103303|   -0.002739|
|        2297|   -4.897502|    0.103301|   -0.002739|
|        2298|   -4.898239|    0.103298|   -0.002739|
|        2299|   -4.898976|    0.103296|   -0.002739|
|        2300|   -4.899713|    0.103294|   -0.002740|
|        2301|   -4.900451|    0.103291|   -0.002740|
|        2302|   -4.901189|    0.103289|   -0.002740|
|        2303|   -4.901927|    0.103287|   -0.002740|
|        2304|   -4.902666|    0.103284|   -0.002740|
|        2305|   -4.903404|    0.103282|   -0.002741|
|        2306|   -4.904143|    0.103280|   -0.002741|
|        2307|   -4.904882|    0.103277|   -0.002741|
|        2308|   -4.905621|    0.103275|   -0.002741|
|        2309|   -4.906360|    0.103273|   -0.002742|
|        2310|   -4.907100|    0.103270|   -0.002742|
|        2311|   -4.907839|    0.103268|   -0.002742|
|        2312|   -4.908579|    0.103266|   -0.002743|
|        2313|   -4.909319|    0.103263|   -0.002743|
|        2314|   -4.910058|    0.103261|   -0.002743|
|        2315|   -4.910798|    0.103259|   -0.002743|
|        2316|   -4.911538|    0.103256|   -0.002744|
|        2317|   -4.912278|    0.103254|   -0.002744|
|        2318|   -4.913019|    0.103252|   -0.002744|
|        2319|   -4.913759|    0.103250|   -0.002745|
|        2320|   -4.914499|    0.103247|   -0.002745|
|        2321|   -4.915240|    0.103245|   -0.002746|
|        2322|   -4.915981|    0.103243|   -0.002746|
|        2323|   -4.916722|    0.103241|   -0.002746|
|        2324|   -4.917463|    0.103238|   -0.002747|
|        2325|   -4.918204|    0.103236|   -0.002747|
|        2326|   -4.918946|    0.103234|   -0.002747|
|        2327|   -4.919688|    0.103232|   -0.002748|
|        2328|   -4.920431|    0.103229|   -0.002748|
|        2329|   -4.921175|    0.103227|   -0.002749|
|        2330|   -4.921919|    0.103225|   -0.002749|
|        2331|   -4.922663|    0.103223|   -0.002750|
|        2332|   -4.923409|    0.103221|   -0.002750|
|        2333|   -4.924155|    0.103219|   -0.002750|
|        2334|   -4.924902|    0.103217|   -0.002751|
|        2335|   -4.925649|    0.103214|   -0.002751|
|        2336|   -4.926398|    0.103212|   -0.002752|
|        2337|   -4.927147|    0.103210|   -0.002752|
|        2338|   -4.927897|    0.103208|   -0.002753|
|        2339|   -4.928648|    0.103206|   -0.002753|
|        2340|   -4.929401|    0.103204|   -0.002754|
|        2341|   -4.930154|    0.103202|   -0.002754|
|        2342|   -4.930908|    0.103200|   -0.002755|
|        2343|   -4.931664|    0.103198|   -0.002755|
|        2344|   -4.932421|    0.103197|   -0.002756|
|        2345|   -4.933180|    0.103195|   -0.002756|
|        2346|   -4.933939|    0.103193|   -0.002757|
|        2347|   -4.934701|    0.103191|   -0.002757|
|        2348|   -4.935463|    0.103189|   -0.002758|
|        2349|   -4.936228|    0.103188|   -0.002758|
|        2350|   -4.936994|    0.103186|   -0.002759|
|        2351|   -4.937762|    0.103184|   -0.002760|
|        2352|   -4.938531|    0.103182|   -0.002760|
|        2353|   -4.939303|    0.103181|   -0.002761|
|        2354|   -4.940076|    0.103179|   -0.002761|
|        2355|   -4.940851|    0.103178|   -0.002762|
|        2356|   -4.941628|    0.103176|   -0.002762|
|        2357|   -4.942408|    0.103175|   -0.002763|
|        2358|   -4.943189|    0.103173|   -0.002764|
|        2359|   -4.943972|    0.103172|   -0.002764|
|        2360|   -4.944757|    0.103170|   -0.002765|
|        2361|   -4.945545|    0.103169|   -0.002765|
|        2362|   -4.946335|    0.103168|   -0.002766|
|        2363|   -4.947127|    0.103167|   -0.002767|
|        2364|   -4.947922|    0.103165|   -0.002767|
|        2365|   -4.948719|    0.103164|   -0.002768|
|        2366|   -4.949518|    0.103163|   -0.002769|
|        2367|   -4.950320|    0.103162|   -0.002769|
|        2368|   -4.951124|    0.103161|   -0.002770|
|        2369|   -4.951931|    0.103160|   -0.002771|
|        2370|   -4.952741|    0.103159|   -0.002771|
|        2371|   -4.953553|    0.103158|   -0.002772|
|        2372|   -4.954368|    0.103157|   -0.002773|
|        2373|   -4.955185|    0.103156|   -0.002773|
|        2374|   -4.956005|    0.103156|   -0.002774|
|        2375|   -4.956828|    0.103155|   -0.002775|
|        2376|   -4.957653|    0.103154|   -0.002775|
|        2377|   -4.958481|    0.103154|   -0.002776|
|        2378|   -4.959312|    0.103153|   -0.002777|
|        2379|   -4.960146|    0.103153|   -0.002777|
|        2380|   -4.960983|    0.103152|   -0.002778|
|        2381|   -4.961822|    0.103152|   -0.002779|
|        2382|   -4.962665|    0.103151|   -0.002780|
|        2383|   -4.963511|    0.103151|   -0.002780|
|        2384|   -4.964359|    0.103151|   -0.002781|
|        2385|   -4.965211|    0.103151|   -0.002782|
|        2386|   -4.966065|    0.103151|   -0.002783|
|        2387|   -4.966923|    0.103150|   -0.002783|
|        2388|   -4.967784|    0.103150|   -0.002784|
|        2389|   -4.968648|    0.103150|   -0.002785|
|        2390|   -4.969515|    0.103151|   -0.002786|
|        2391|   -4.970385|    0.103151|   -0.002786|
|        2392|   -4.971258|    0.103151|   -0.002787|
|        2393|   -4.972134|    0.103151|   -0.002788|
|        2394|   -4.973013|    0.103151|   -0.002789|
|        2395|   -4.973896|    0.103152|   -0.002789|
|        2396|   -4.974783|    0.103152|   -0.002790|
|        2397|   -4.975673|    0.103153|   -0.002791|
|        2398|   -4.976566|    0.103153|   -0.002792|
|        2399|   -4.977461|    0.103154|   -0.002793|
|        2400|   -4.978360|    0.103155|   -0.002793|
|        2401|   -4.979261|    0.103155|   -0.002794|
|        2402|   -4.980166|    0.103156|   -0.002795|
|        2403|   -4.981074|    0.103157|   -0.002796|
|        2404|   -4.981984|    0.103158|   -0.002797|
|        2405|   -4.982898|    0.103159|   -0.002797|
|        2406|   -4.983815|    0.103160|   -0.002798|
|        2407|   -4.984734|    0.103161|   -0.002799|
|        2408|   -4.985657|    0.103162|   -0.002800|
|        2409|   -4.986582|    0.103163|   -0.002801|
|        2410|   -4.987511|    0.103165|   -0.002802|
|        2411|   -4.988442|    0.103166|   -0.002802|
|        2412|   -4.989376|    0.103167|   -0.002803|
|        2413|   -4.990312|    0.103169|   -0.002804|
|        2414|   -4.991252|    0.103170|   -0.002805|
|        2415|   -4.992194|    0.103172|   -0.002806|
|        2416|   -4.993139|    0.103173|   -0.002807|
|        2417|   -4.994087|    0.103175|   -0.002808|
|        2418|   -4.995038|    0.103177|   -0.002808|
|        2419|   -4.995992|    0.103178|   -0.002809|
|        2420|   -4.996949|    0.103180|   -0.002810|
|        2421|   -4.997908|    0.103182|   -0.002811|
|        2422|   -4.998870|    0.103184|   -0.002812|
|        2423|   -4.999835|    0.103186|   -0.002813|
|        2424|   -5.000802|    0.103188|   -0.002814|
|        2425|   -5.001773|    0.103190|   -0.002815|
|        2426|   -5.002746|    0.103192|   -0.002815|
|        2427|   -5.003722|    0.103194|   -0.002816|
|        2428|   -5.004701|    0.103197|   -0.002817|
|        2429|   -5.005683|    0.103199|   -0.002818|
|        2430|   -5.006667|    0.103201|   -0.002819|
|        2431|   -5.007654|    0.103204|   -0.002820|
|        2432|   -5.008644|    0.103206|   -0.002821|
|        2433|   -5.009637|    0.103209|   -0.002822|
|        2434|   -5.010632|    0.103211|   -0.002823|
|        2435|   -5.011630|    0.103214|   -0.002823|
|        2436|   -5.012630|    0.103217|   -0.002824|
|        2437|   -5.013633|    0.103219|   -0.002825|
|        2438|   -5.014638|    0.103222|   -0.002826|
|        2439|   -5.015646|    0.103225|   -0.002827|
|        2440|   -5.016657|    0.103227|   -0.002828|
|        2441|   -5.017670|    0.103230|   -0.002829|
|        2442|   -5.018686|    0.103233|   -0.002830|
|        2443|   -5.019705|    0.103236|   -0.002831|
|        2444|   -5.020726|    0.103239|   -0.002832|
|        2445|   -5.021749|    0.103242|   -0.002832|
|        2446|   -5.022775|    0.103245|   -0.002833|
|        2447|   -5.023803|    0.103248|   -0.002834|
|        2448|   -5.024834|    0.103251|   -0.002835|
|        2449|   -5.025868|    0.103255|   -0.002836|
|        2450|   -5.026903|    0.103258|   -0.002837|
|        2451|   -5.027941|    0.103261|   -0.002838|
|        2452|   -5.028981|    0.103264|   -0.002839|
|        2453|   -5.030023|    0.103267|   -0.002840|
|        2454|   -5.031068|    0.103271|   -0.002841|
|        2455|   -5.032115|    0.103274|   -0.002842|
|        2456|   -5.033164|    0.103277|   -0.002842|
|        2457|   -5.034216|    0.103281|   -0.002843|
|        2458|   -5.035270|    0.103284|   -0.002844|
|        2459|   -5.036326|    0.103288|   -0.002845|
|        2460|   -5.037383|    0.103291|   -0.002846|
|        2461|   -5.038443|    0.103295|   -0.002847|
|        2462|   -5.039505|    0.103298|   -0.002848|
|        2463|   -5.040569|    0.103302|   -0.002849|
|        2464|   -5.041634|    0.103305|   -0.002850|
|        2465|   -5.042701|    0.103309|   -0.002851|
|        2466|   -5.043770|    0.103312|   -0.002851|
|        2467|   -5.044841|    0.103316|   -0.002852|
|        2468|   -5.045913|    0.103319|   -0.002853|
|        2469|   -5.046987|    0.103323|   -0.002854|
|        2470|   -5.048062|    0.103327|   -0.002855|
|        2471|   -5.049139|    0.103330|   -0.002856|
|        2472|   -5.050217|    0.103334|   -0.002857|
|        2473|   -5.051295|    0.103337|   -0.002858|
|        2474|   -5.052375|    0.103341|   -0.002858|
|        2475|   -5.053456|    0.103345|   -0.002859|
|        2476|   -5.054538|    0.103348|   -0.002860|
|        2477|   -5.055620|    0.103352|   -0.002861|
|        2478|   -5.056704|    0.103356|   -0.002862|
|        2479|   -5.057788|    0.103359|   -0.002863|
|        2480|   -5.058873|    0.103363|   -0.002864|
|        2481|   -5.059958|    0.103366|   -0.002864|
|        2482|   -5.061043|    0.103370|   -0.002865|
|        2483|   -5.062128|    0.103374|   -0.002866|
|        2484|   -5.063214|    0.103377|   -0.002867|
|        2485|   -5.064299|    0.103381|   -0.002868|
|        2486|   -5.065384|    0.103384|   -0.002869|
|        2487|   -5.066468|    0.103388|   -0.002869|
|        2488|   -5.067552|    0.103392|   -0.002870|
|        2489|   -5.068636|    0.103395|   -0.002871|
|        2490|   -5.069719|    0.103399|   -0.002872|
|        2491|   -5.070800|    0.103402|   -0.002873|
|        2492|   -5.071881|    0.103406|   -0.002873|
|        2493|   -5.072961|    0.103409|   -0.002874|
|        2494|   -5.074039|    0.103413|   -0.002875|
|        2495|   -5.075115|    0.103416|   -0.002876|
|        2496|   -5.076190|    0.103419|   -0.002876|
|        2497|   -5.077263|    0.103423|   -0.002877|
|        2498|   -5.078335|    0.103426|   -0.002878|
|        2499|   -5.079404|    0.103430|   -0.002879|

----------------------------- Solver Exit -------------------------------

Maximum number of iterations reached (ITER = 2500) before convergence.
+-----------------------------------------------------------------------+
|      Convergence Field     |     Value    |   Criterion  |  Converged |
+-----------------------------------------------------------------------+
|                    rms[Rho]|       -5.0794|         < -12|          No|
+-----------------------------------------------------------------------+
-------------------------------------------------------------------------
+-----------------------------------------------------------------------+
|        File Writing Summary       |              Filename             |
+-----------------------------------------------------------------------+
|SU2 binary restart                 |restart_flow.dat                   |
|CSV file                           |surface_flow.csv                   |
+-----------------------------------------------------------------------+

--------------------------- Finalizing Solver ---------------------------
Deleted CNumerics container.
Deleted CIntegration container.
Deleted CSolver container.
Deleted CIteration container.
Deleted CInterface container.
Deleted CGeometry container.
Deleted CFreeFormDefBox class.
Deleted CSurfaceMovement class.
Deleted CVolumetricMovement class.
Deleted CConfig container.
Deleted nInst container.
Deleted COutput class.
-------------------------------------------------------------------------

------------------------- Exit Success (SU2_CFD) ------------------------

